# temperature
variable	T equal 300
#cold region temperature
#variable        tlo equal 275
variable        tlo equal 300-50*1.5938/4.0
#hot region temperature
variable        thi equal 300+50*1.5938/4.0

#time step (picoseconds)
variable	dt equal 0.0005 # 0.5 femtoseconds
#number of time steps for NPT
variable	tnpt equal 5000
#number of time steps for NVT
variable	tnvt equal 40000
#number of time steps for first NVE
variable	t1nve equal 100000
#number of time steps for second NVE
variable	t2nve equal 500000

################### Variable Based on LAMMPS Documentation ######################
variable	a equal 100
variable	c equal 500000
variable	b equal $c/$a
variable	b equal 500000/$a
variable	b equal 500000/100
variable	tdamp equal 0.0005*100
variable	pdamp equal 0.0005*1000

#----------------------------------------------------------------------------------------
# setup problem
dimension       3
boundary        p p p
atom_style      atomic
lattice 	diamond 5.43 origin 0.0 0.0 0.0 orient x 1 0 0 orient y 0 1 0 orient z 0 0 1
Lattice spacing in x,y,z = 5.43 5.43 5.43
region          0 block 0 $L 0 $W 0 $H units lattice side in
region          0 block 0 50 0 $W 0 $H units lattice side in
region          0 block 0 50 0 22 0 $H units lattice side in
region          0 block 0 50 0 22 0 22 units lattice side in
create_box      1 0
Created orthogonal box = (0 0 0) to (271.5 119.46 119.46)
create_atoms    1 region 0
Created 193600 atoms
mass		1 28.0855
#dump_modify	1 element Si

############################################
pair_style   sw
pair_coeff   * * Si7.sw Si
thermo		100
thermo_style custom step lx
min_style cg
minimize 0.0 1.0e-8 10000 100000
  update every 1 steps, delay 0 steps, check yes
Step Lx
       0        271.5
       1        271.5
Loop time of 0.307245 on 32 procs for 1 steps with 193600 atoms

Minimization stats:
  Stopping criterion = force tolerance
  Energy initial, next-to-last, final =
  Force two-norm initial, final = 1.10515e-10 1.1044e-10
  Force max component initial, final = 6.43454e-13 6.45998e-13
  Final line search alpha, max atom move = 1 6.45998e-13
  Iterations, force evaluations = 1 2

timestep     0.0005
velocity 	all create $T 492845
velocity 	all create 300 492845

fix 		NPT all npt temp 300 300 0.05 iso 0.0 0.0 0.5
thermo		100
thermo_style custom step lx press
run		5000
Step Lx Press
1        271.5    80643.557
Averages over the last 26 of 52 rows, steps 2600 to 5001:
Lx Press
278.897 -0.596944
Loop time of 423.26 on 32 procs for 5000 steps with 193600 atoms

unfix		NPT
variable	length equal lx/5.43

################### Geometrical Parameters After Relaxation ###############################
# Thermostat_width
variable	TW equal 51.3628559274192/40
# Hot_Start
variable	hs equal 51.3628559274192/4-1.28407139818548
# Hot_End
variable	he equal 51.3628559274192/4+1.28407139818548
# Cold_Start
variable	cs equal 3*51.3628559274192/4-1.28407139818548
# Cold_End
variable	ce equal 3*51.3628559274192/4+1.28407139818548
###########################################################################################

################### Defining Thermostat ###################################################
region 		hot block 11.5566425836693 14.1247853800403 EDGE EDGE EDGE EDGE
region 		cold block 37.2380705473789 39.8062133437499 EDGE EDGE EDGE EDGE
group		test region cold
9576 atoms in group test
group		test1 region hot
9572 atoms in group test1
compute		Thot all temp/region hot
compute         Tcold all temp/region cold
###########################################################################################

fix		NVT all nvt temp 300 300 0.05
thermo		1000
thermo_style	custom step temp
run		40000
Step Temp
    5001    300.58465
    6000    301.45384
    7000    301.50958
    8000    299.48917
    9000     299.1374
   10000    297.76254
   11000    299.04916
   12000    299.37575
   13000    300.89175
   14000    301.42812
   15000    299.96502
   16000    299.26273
   17000     300.1206
   18000      301.217
   19000    299.58164
   20000    299.83098
   21000    300.49514
   22000     300.5256
   23000    300.35569
   24000    299.73096
   25000    300.51565
   26000    300.44137
   27000    299.67795
   28000    300.91922
   29000    299.48315
   30000     299.5406
   31000    300.50694
   32000    299.76643
   33000    300.25581
   34000    301.09056
   35000    300.83769
   36000    299.45178
   37000     300.3822
   38000    300.44337
   39000    299.12456
   40000    300.18535
   41000    300.02831
   42000    299.00854
   43000    298.63957
   44000    300.86722
   45000    298.73806
   45001     298.7657
Loop time of 3231.19 on 32 procs for 40000 steps with 193600 atoms

velocity	all scale $T
velocity	all scale 300
unfix		NVT

fix		NVE all nve
fix		hot all langevin 319.9225 319.9225 0.05 389516 tally yes
fix_modify	hot temp Thot
fix		cold all langevin 280.0775 280.0775 0.05 46579 tally yes
fix_modify	cold temp Tcold

thermo_style	custom step temp c_Thot c_Tcold f_hot f_cold
run		100000
Step Temp c_Thot c_Tcold f_hot f_cold
45001          300    302.20443    299.79592           -0           -0
Averages over the last 51 of 102 rows, steps 96000 to 145001:
Temp c_Thot c_Tcold f_hot f_cold
300.208 318.523 281.427 -3321.96 3350.31
Loop time of 8204.56 on 32 procs for 100000 steps with 193600 atoms

# thermal conductivity calculation
# reset langevin thermostats to zero energy accumulation
reset_timestep 0
thermo		$c
thermo		500000
compute		ke all ke/atom
variable	temp atom c_ke/1.5/8.617332478e-5
fix		hot all langevin 319.9225 319.9225 0.05 389516 tally yes
fix_modify	hot temp Thot
fix		cold all langevin 280.0775 280.0775 0.05 46579 tally yes
fix_modify	cold temp Tcold

compute		ch all chunk/atom bin/1d x lower 0.02 units reduced
fix		11 all ave/chunk 100 5000 500000 ch v_temp file sw_7.langevin
thermo_style	custom step temp c_Thot c_Tcold f_hot f_cold

run		500000
Step Temp c_Thot c_Tcold f_hot f_cold
0    300.65745    321.83963    283.00409           -0           -0
Loop time of 40857.5 on 32 procs for 500000 steps with 193600 atoms

clear
next		P
jump		Si.in
 units       metal
#----------------------------- User Input Variables --------------------------------------
################### Geometrical Parameters ###############################
variable	P index 5 6 7 8
variable	W equal 22
# Lattice Constant
variable	LC equal 5.43
# Length
variable	L equal 50
# Width
#variable	W equal 6
# Height
variable	H equal 22
################### Simulation Condition ###############################
#DT/DX=cte
variable	cte equal 1.5938
log         sw_8.log
