# temperature
variable	T equal 300
#cold region temperature
#variable        tlo equal 275
variable        tlo equal 300-50*1.5938/4.0
#hot region temperature
variable        thi equal 300+50*1.5938/4.0

#time step (picoseconds)
variable	dt equal 0.0005 # 0.5 femtoseconds
#number of time steps for NPT
variable	tnpt equal 5000
#number of time steps for NVT
variable	tnvt equal 40000
#number of time steps for first NVE
variable	t1nve equal 100000
#number of time steps for second NVE
variable	t2nve equal 500000

################### Variable Based on LAMMPS Documentation ######################
variable	a equal 100
variable	c equal 500000
variable	b equal $c/$a
variable	b equal 500000/$a
variable	b equal 500000/100
variable	tdamp equal 0.0005*100
variable	pdamp equal 0.0005*1000

#----------------------------------------------------------------------------------------
# setup problem
dimension       3
boundary        p p p
atom_style      atomic
lattice 	diamond 5.43 origin 0.0 0.0 0.0 orient x 1 0 0 orient y 0 1 0 orient z 0 0 1
Lattice spacing in x,y,z = 5.43 5.43 5.43
region          0 block 0 $L 0 $W 0 $H units lattice side in
region          0 block 0 50 0 $W 0 $H units lattice side in
region          0 block 0 50 0 22 0 $H units lattice side in
region          0 block 0 50 0 22 0 22 units lattice side in
create_box      1 0
Created orthogonal box = (0 0 0) to (271.5 119.46 119.46)
create_atoms    1 region 0
Created 193600 atoms
mass		1 28.0855
#dump_modify	1 element Si

############################################
pair_style   sw
pair_coeff   * * Si4.sw Si
thermo		100
thermo_style custom step lx
min_style cg
minimize 0.0 1.0e-8 10000 100000
  update every 1 steps, delay 0 steps, check yes
Step Lx
       0        271.5
       1        271.5
Loop time of 0.319578 on 32 procs for 1 steps with 193600 atoms

Minimization stats:
  Stopping criterion = force tolerance
  Energy initial, next-to-last, final =
  Force two-norm initial, final = 8.66968e-11 8.66981e-11
  Force max component initial, final = 3.24722e-13 3.26295e-13
  Final line search alpha, max atom move = 1 3.26295e-13
  Iterations, force evaluations = 1 2

timestep     0.0005
velocity 	all create $T 492845
velocity 	all create 300 492845

fix 		NPT all npt temp 300 300 0.05 iso 0.0 0.0 0.5
thermo		100
thermo_style custom step lx press
run		5000
Step Lx Press
1        271.5    16688.587
Averages over the last 26 of 52 rows, steps 2600 to 5001:
Lx Press
277.584 13.2991
Loop time of 466.439 on 32 procs for 5000 steps with 193600 atoms

unfix		NPT
variable	length equal lx/5.43

################### Geometrical Parameters After Relaxation ###############################
# Thermostat_width
variable	TW equal 51.1348878395893/40
# Hot_Start
variable	hs equal 51.1348878395893/4-1.27837219598973
# Hot_End
variable	he equal 51.1348878395893/4+1.27837219598973
# Cold_Start
variable	cs equal 3*51.1348878395893/4-1.27837219598973
# Cold_End
variable	ce equal 3*51.1348878395893/4+1.27837219598973
###########################################################################################

################### Defining Thermostat ###################################################
region 		hot block 11.5053497639076 14.0620941558871 EDGE EDGE EDGE EDGE
region 		cold block 37.0727936837022 39.6295380756817 EDGE EDGE EDGE EDGE
group		test region cold
9690 atoms in group test
group		test1 region hot
9702 atoms in group test1
compute		Thot all temp/region hot
compute         Tcold all temp/region cold
###########################################################################################

fix		NVT all nvt temp 300 300 0.05
thermo		1000
thermo_style	custom step temp
run		40000
Step Temp
    5001    300.06669
    6000    300.74517
    7000    301.73351
    8000    302.44409
    9000    309.56651
   10000    324.83509
   11000    347.44477
   12000     360.4877
   13000    355.09982
   14000    332.10008
   15000    311.82747
   16000    303.37061
   17000    301.37664
   18000    300.53763
   19000    300.35114
   20000    300.98074
   21000    298.49306
   22000    300.56359
   23000    300.13861
   24000    300.82236
   25000    300.87382
   26000    299.75619
   27000    299.85107
   28000    299.63786
   29000    299.39003
   30000    299.51166
   31000    299.70018
   32000    300.28262
   33000    300.17567
   34000    300.25946
   35000    300.39702
   36000    300.56177
   37000    299.67904
   38000    300.14243
   39000    300.94647
   40000    299.12977
   41000    300.66313
   42000    298.57981
   43000    299.86615
   44000    299.54155
   45000    299.95594
   45001    299.93174
Loop time of 3168.97 on 32 procs for 40000 steps with 193600 atoms

velocity	all scale $T
velocity	all scale 300
unfix		NVT

fix		NVE all nve
fix		hot all langevin 319.9225 319.9225 0.05 389516 tally yes
fix_modify	hot temp Thot
fix		cold all langevin 280.0775 280.0775 0.05 46579 tally yes
fix_modify	cold temp Tcold

thermo_style	custom step temp c_Thot c_Tcold f_hot f_cold
run		100000
Step Temp c_Thot c_Tcold f_hot f_cold
45001          300    312.37155    286.47393           -0           -0
Averages over the last 51 of 102 rows, steps 96000 to 145001:
Temp c_Thot c_Tcold f_hot f_cold
312.644 319.742 280.327 465.587 1428.35
Loop time of 7990.7 on 32 procs for 100000 steps with 193600 atoms

# thermal conductivity calculation
# reset langevin thermostats to zero energy accumulation
reset_timestep 0
thermo		$c
thermo		500000
compute		ke all ke/atom
variable	temp atom c_ke/1.5/8.617332478e-5
fix		hot all langevin 319.9225 319.9225 0.05 389516 tally yes
fix_modify	hot temp Thot
fix		cold all langevin 280.0775 280.0775 0.05 46579 tally yes
fix_modify	cold temp Tcold

compute		ch all chunk/atom bin/1d x lower 0.02 units reduced
fix		11 all ave/chunk 100 5000 500000 ch v_temp file sw_4.langevin
thermo_style	custom step temp c_Thot c_Tcold f_hot f_cold

run		500000
Step Temp c_Thot c_Tcold f_hot f_cold
0    310.02092    320.27554    274.71429           -0           -0
Loop time of 39901.6 on 32 procs for 500000 steps with 193600 atoms

clear
next		P
jump		Si.in
