# temperature
variable	T equal 300
#cold region temperature
#variable        tlo equal 275
variable        tlo equal 300-50*1.5938/4.0
#hot region temperature
variable        thi equal 300+50*1.5938/4.0

#time step (picoseconds)
variable	dt equal 0.0005 # 0.5 femtoseconds
#number of time steps for NPT
variable	tnpt equal 5000
#number of time steps for NVT
variable	tnvt equal 40000
#number of time steps for first NVE
variable	t1nve equal 100000
#number of time steps for second NVE
variable	t2nve equal 500000

################### Variable Based on LAMMPS Documentation ######################
variable	a equal 100
variable	c equal 500000
variable	b equal $c/$a
variable	b equal 500000/$a
variable	b equal 500000/100
variable	tdamp equal 0.0005*100
variable	pdamp equal 0.0005*1000

#----------------------------------------------------------------------------------------
# setup problem
dimension       3
boundary        p p p
atom_style      atomic
lattice 	diamond 5.43 origin 0.0 0.0 0.0 orient x 1 0 0 orient y 0 1 0 orient z 0 0 1
Lattice spacing in x,y,z = 5.43 5.43 5.43
region          0 block 0 $L 0 $W 0 $H units lattice side in
region          0 block 0 50 0 $W 0 $H units lattice side in
region          0 block 0 50 0 22 0 $H units lattice side in
region          0 block 0 50 0 22 0 22 units lattice side in
create_box      1 0
Created orthogonal box = (0 0 0) to (271.5 119.46 119.46)
create_atoms    1 region 0
Created 193600 atoms
mass		1 28.0855
#dump_modify	1 element Si

############################################
pair_style   sw
pair_coeff   * * Si8.sw Si
thermo		100
thermo_style custom step lx
min_style cg
minimize 0.0 1.0e-8 10000 100000
  update every 1 steps, delay 0 steps, check yes
Step Lx
       0        271.5
       1        271.5
Loop time of 0.308286 on 32 procs for 1 steps with 193600 atoms

Minimization stats:
  Stopping criterion = force tolerance
  Energy initial, next-to-last, final =
  Force two-norm initial, final = 1.12307e-10 1.12221e-10
  Force max component initial, final = 6.56077e-13 6.59558e-13
  Final line search alpha, max atom move = 1 6.59558e-13
  Iterations, force evaluations = 1 2

timestep     0.0005
velocity 	all create $T 492845
velocity 	all create 300 492845

fix 		NPT all npt temp 300 300 0.05 iso 0.0 0.0 0.5
thermo		100
thermo_style custom step lx press
run		5000
Step Lx Press
1        271.5    78450.982
Averages over the last 26 of 52 rows, steps 2600 to 5001:
Lx Press
278.303 4.76335
Loop time of 330.696 on 32 procs for 5000 steps with 193600 atoms

unfix		NPT
variable	length equal lx/5.43

################### Geometrical Parameters After Relaxation ###############################
# Thermostat_width
variable	TW equal 51.2514755249434/40
# Hot_Start
variable	hs equal 51.2514755249434/4-1.28128688812359
# Hot_End
variable	he equal 51.2514755249434/4+1.28128688812359
# Cold_Start
variable	cs equal 3*51.2514755249434/4-1.28128688812359
# Cold_End
variable	ce equal 3*51.2514755249434/4+1.28128688812359
###########################################################################################

################### Defining Thermostat ###################################################
region 		hot block 11.5315819931123 14.0941557693594 EDGE EDGE EDGE EDGE
region 		cold block 37.157319755584 39.7198935318311 EDGE EDGE EDGE EDGE
group		test region cold
9585 atoms in group test
group		test1 region hot
9567 atoms in group test1
compute		Thot all temp/region hot
compute         Tcold all temp/region cold
###########################################################################################

fix		NVT all nvt temp 300 300 0.05
thermo		1000
thermo_style	custom step temp
run		40000
Step Temp
    5001    298.66101
    6000    296.79412
    7000     299.1524
    8000     299.6496
    9000    299.94166
   10000    300.12693
   11000    298.80071
   12000    300.19862
   13000    300.57974
   14000    301.11983
   15000    300.08512
   16000    300.36577
   17000    300.34865
   18000    301.41994
   19000    302.39457
   20000    299.30677
   21000    299.21063
   22000    300.90301
   23000    299.98006
   24000    299.22623
   25000     300.1975
   26000    298.74846
   27000    299.62174
   28000    298.77039
   29000    300.81329
   30000    301.43528
   31000     300.5837
   32000    298.77632
   33000    298.90426
   34000    300.48568
   35000    300.02102
   36000    298.59168
   37000    300.53922
   38000    299.43582
   39000    299.31979
   40000    299.90758
   41000    299.94787
   42000    299.70066
   43000    300.79583
   44000    300.72783
   45000    300.03211
   45001    300.07211
Loop time of 2582.66 on 32 procs for 40000 steps with 193600 atoms

velocity	all scale $T
velocity	all scale 300
unfix		NVT

fix		NVE all nve
fix		hot all langevin 319.9225 319.9225 0.05 389516 tally yes
fix_modify	hot temp Thot
fix		cold all langevin 280.0775 280.0775 0.05 46579 tally yes
fix_modify	cold temp Tcold

thermo_style	custom step temp c_Thot c_Tcold f_hot f_cold
run		100000
Step Temp c_Thot c_Tcold f_hot f_cold
45001          300      302.031    301.88766           -0           -0
Averages over the last 51 of 102 rows, steps 96000 to 145001:
Temp c_Thot c_Tcold f_hot f_cold
300.697 318.38 282.519 -3323.52 3325.19
Loop time of 6567.71 on 32 procs for 100000 steps with 193600 atoms

# thermal conductivity calculation
# reset langevin thermostats to zero energy accumulation
reset_timestep 0
thermo		$c
thermo		500000
compute		ke all ke/atom
variable	temp atom c_ke/1.5/8.617332478e-5
fix		hot all langevin 319.9225 319.9225 0.05 389516 tally yes
fix_modify	hot temp Thot
fix		cold all langevin 280.0775 280.0775 0.05 46579 tally yes
fix_modify	cold temp Tcold

compute		ch all chunk/atom bin/1d x lower 0.02 units reduced
fix		11 all ave/chunk 100 5000 500000 ch v_temp file sw_8.langevin
thermo_style	custom step temp c_Thot c_Tcold f_hot f_cold

run		500000
Step Temp c_Thot c_Tcold f_hot f_cold
0    299.92918    315.75647    282.60199           -0           -0
Loop time of 32811 on 32 procs for 500000 steps with 193600 atoms

clear
next		P
jump		Si.in
