# temperature
variable	T equal 300
#cold region temperature
#variable        tlo equal 275
variable        tlo equal 300-50*1.5938/4.0
#hot region temperature
variable        thi equal 300+50*1.5938/4.0

#time step (picoseconds)
variable	dt equal 0.0005 # 0.5 femtoseconds
#number of time steps for NPT
variable	tnpt equal 5000
#number of time steps for NVT
variable	tnvt equal 40000
#number of time steps for first NVE
variable	t1nve equal 100000
#number of time steps for second NVE
variable	t2nve equal 500000

################### Variable Based on LAMMPS Documentation ######################
variable	a equal 100
variable	c equal 500000
variable	b equal $c/$a
variable	b equal 500000/$a
variable	b equal 500000/100
variable	tdamp equal 0.0005*100
variable	pdamp equal 0.0005*1000

#----------------------------------------------------------------------------------------
# setup problem
dimension       3
boundary        p p p
atom_style      atomic
lattice 	diamond 5.43 origin 0.0 0.0 0.0 orient x 1 0 0 orient y 0 1 0 orient z 0 0 1
Lattice spacing in x,y,z = 5.43 5.43 5.43
region          0 block 0 $L 0 $W 0 $H units lattice side in
region          0 block 0 50 0 $W 0 $H units lattice side in
region          0 block 0 50 0 22 0 $H units lattice side in
region          0 block 0 50 0 22 0 22 units lattice side in
create_box      1 0
Created orthogonal box = (0 0 0) to (271.5 119.46 119.46)
create_atoms    1 region 0
Created 193600 atoms
mass		1 28.0855
#dump_modify	1 element Si

############################################
pair_style   sw
pair_coeff   * * Si2.sw Si
thermo		100
thermo_style custom step lx
min_style cg
minimize 0.0 1.0e-8 10000 100000
  update every 1 steps, delay 0 steps, check yes
Step Lx
       0        271.5
       1        271.5
Loop time of 0.0407886 on 32 procs for 1 steps with 193600 atoms

Minimization stats:
  Stopping criterion = force tolerance
  Energy initial, next-to-last, final =
  Force two-norm initial, final = 6.70736e-11 6.70284e-11
  Force max component initial, final = 3.89882e-13 3.90825e-13
  Final line search alpha, max atom move = 1 3.90825e-13
  Iterations, force evaluations = 1 2

timestep     0.0005
velocity 	all create $T 492845
velocity 	all create 300 492845

fix 		NPT all npt temp 300 300 0.05 iso 0.0 0.0 0.5
thermo		100
thermo_style custom step lx press
run		5000
Step Lx Press
1        271.5   -115611.08
Averages over the last 26 of 52 rows, steps 2600 to 5001:
Lx Press
260.148 -0.326082
Loop time of 76.0425 on 32 procs for 5000 steps with 193600 atoms

unfix		NPT
variable	length equal lx/5.43

################### Geometrical Parameters After Relaxation ###############################
# Thermostat_width
variable	TW equal 47.9105708765948/40
# Hot_Start
variable	hs equal 47.9105708765948/4-1.19776427191487
# Hot_End
variable	he equal 47.9105708765948/4+1.19776427191487
# Cold_Start
variable	cs equal 3*47.9105708765948/4-1.19776427191487
# Cold_End
variable	ce equal 3*47.9105708765948/4+1.19776427191487
###########################################################################################

################### Defining Thermostat ###################################################
region 		hot block 10.7798784472338 13.1754069910636 EDGE EDGE EDGE EDGE
region 		cold block 34.7351638855312 37.130692429361 EDGE EDGE EDGE EDGE
group		test region cold
9559 atoms in group test
group		test1 region hot
9559 atoms in group test1
compute		Thot all temp/region hot
compute         Tcold all temp/region cold
###########################################################################################

fix		NVT all nvt temp 300 300 0.05
thermo		1000
thermo_style	custom step temp
run		40000
Step Temp
    5001    300.17514
    6000    298.41905
    7000     299.0861
    8000    299.26443
    9000    298.50857
   10000    300.36937
   11000    300.31779
   12000    300.10155
   13000    301.47689
   14000     299.5827
   15000    299.97505
   16000    299.74849
   17000    299.86675
   18000    298.86089
   19000    299.71316
   20000    301.40015
   21000    300.41043
   22000    298.25573
   23000    299.08137
   24000    301.60383
   25000    300.24898
   26000    300.30673
   27000    299.89784
   28000     300.4641
   29000    300.50944
   30000    299.57237
   31000    299.57563
   32000    300.19211
   33000     300.3147
   34000    300.30997
   35000    299.18956
   36000    300.87569
   37000    299.59401
   38000    301.71763
   39000    299.58824
   40000    300.88361
   41000    299.20907
   42000    299.62424
   43000    300.64505
   44000    299.25838
   45000    299.23574
   45001    299.26487
Loop time of 561.033 on 32 procs for 40000 steps with 193600 atoms

velocity	all scale $T
velocity	all scale 300
unfix		NVT

fix		NVE all nve
fix		hot all langevin 319.9225 319.9225 0.05 389516 tally yes
fix_modify	hot temp Thot
fix		cold all langevin 280.0775 280.0775 0.05 46579 tally yes
fix_modify	cold temp Tcold

thermo_style	custom step temp c_Thot c_Tcold f_hot f_cold
run		100000
Step Temp c_Thot c_Tcold f_hot f_cold
45001          300    302.18157    298.23481           -0           -0
Averages over the last 51 of 102 rows, steps 96000 to 145001:
Temp c_Thot c_Tcold f_hot f_cold
299.573 319.205 281.282 -1952.77 1972.42
Loop time of 1557.15 on 32 procs for 100000 steps with 193600 atoms

# thermal conductivity calculation
# reset langevin thermostats to zero energy accumulation
reset_timestep 0
thermo		$c
thermo		500000
compute		ke all ke/atom
variable	temp atom c_ke/1.5/8.617332478e-5
fix		hot all langevin 319.9225 319.9225 0.05 389516 tally yes
fix_modify	hot temp Thot
fix		cold all langevin 280.0775 280.0775 0.05 46579 tally yes
fix_modify	cold temp Tcold

compute		ch all chunk/atom bin/1d x lower 0.02 units reduced
fix		11 all ave/chunk 100 5000 500000 ch v_temp file sw_2.langevin
thermo_style	custom step temp c_Thot c_Tcold f_hot f_cold

run		500000
Step Temp c_Thot c_Tcold f_hot f_cold
0    299.43331    325.36841    279.30033           -0           -0
Loop time of 7719.53 on 32 procs for 500000 steps with 193600 atoms

clear
next		P
jump		Si.in
 units       metal
#----------------------------- User Input Variables --------------------------------------
################### Geometrical Parameters ###############################
variable	P index 1 2 3 4
variable	W equal 22
# Lattice Constant
variable	LC equal 5.43
# Length
variable	L equal 50
# Width
#variable	W equal 6
# Height
variable	H equal 22
################### Simulation Condition ###############################
#DT/DX=cte
variable	cte equal 1.5938
log         sw_3.log
