# temperature
variable	T equal 300
#cold region temperature
#variable        tlo equal 275
variable        tlo equal 300-50*1.5938/4.0
#hot region temperature
variable        thi equal 300+50*1.5938/4.0

#time step (picoseconds)
variable	dt equal 0.0005 # 0.5 femtoseconds
#number of time steps for NPT
variable	tnpt equal 5000
#number of time steps for NVT
variable	tnvt equal 40000
#number of time steps for first NVE
variable	t1nve equal 100000
#number of time steps for second NVE
variable	t2nve equal 500000

################### Variable Based on LAMMPS Documentation ######################
variable	a equal 100
variable	c equal 500000
variable	b equal $c/$a
variable	b equal 500000/$a
variable	b equal 500000/100
variable	tdamp equal 0.0005*100
variable	pdamp equal 0.0005*1000

#----------------------------------------------------------------------------------------
# setup problem
dimension       3
boundary        p p p
atom_style      atomic
lattice 	diamond 5.43 origin 0.0 0.0 0.0 orient x 1 0 0 orient y 0 1 0 orient z 0 0 1
Lattice spacing in x,y,z = 5.43 5.43 5.43
region          0 block 0 $L 0 $W 0 $H units lattice side in
region          0 block 0 50 0 $W 0 $H units lattice side in
region          0 block 0 50 0 22 0 $H units lattice side in
region          0 block 0 50 0 22 0 22 units lattice side in
create_box      1 0
Created orthogonal box = (0 0 0) to (271.5 119.46 119.46)
create_atoms    1 region 0
Created 193600 atoms
mass		1 28.0855
#dump_modify	1 element Si

############################################
pair_style   sw
pair_coeff   * * Si5.sw Si
thermo		100
thermo_style custom step lx
min_style cg
minimize 0.0 1.0e-8 10000 100000
  update every 1 steps, delay 0 steps, check yes
Step Lx
       0        271.5
       1        271.5
Loop time of 0.0416327 on 32 procs for 1 steps with 193600 atoms

Minimization stats:
  Stopping criterion = force tolerance
  Energy initial, next-to-last, final =
  Force two-norm initial, final = 7.62317e-11 7.61777e-11
  Force max component initial, final = 4.42957e-13 4.45505e-13
  Final line search alpha, max atom move = 1 4.45505e-13
  Iterations, force evaluations = 1 2

timestep     0.0005
velocity 	all create $T 492845
velocity 	all create 300 492845

fix 		NPT all npt temp 300 300 0.05 iso 0.0 0.0 0.5
thermo		100
thermo_style custom step lx press
run		5000
Step Lx Press
1        271.5   -28084.404
Averages over the last 26 of 52 rows, steps 2600 to 5001:
Lx Press
268.815 -2.34439
Loop time of 108.515 on 32 procs for 5000 steps with 193600 atoms

unfix		NPT
variable	length equal lx/5.43

################### Geometrical Parameters After Relaxation ###############################
# Thermostat_width
variable	TW equal 49.5062682550884/40
# Hot_Start
variable	hs equal 49.5062682550884/4-1.23765670637721
# Hot_End
variable	he equal 49.5062682550884/4+1.23765670637721
# Cold_Start
variable	cs equal 3*49.5062682550884/4-1.23765670637721
# Cold_End
variable	ce equal 3*49.5062682550884/4+1.23765670637721
###########################################################################################

################### Defining Thermostat ###################################################
region 		hot block 11.1389103573949 13.6142237701493 EDGE EDGE EDGE EDGE
region 		cold block 35.8920444849391 38.3673578976935 EDGE EDGE EDGE EDGE
group		test region cold
9557 atoms in group test
group		test1 region hot
9563 atoms in group test1
compute		Thot all temp/region hot
compute         Tcold all temp/region cold
###########################################################################################

fix		NVT all nvt temp 300 300 0.05
thermo		1000
thermo_style	custom step temp
run		40000
Step Temp
    5001    300.93697
    6000     301.6958
    7000     299.4475
    8000    298.67375
    9000     301.0684
   10000    299.63804
   11000     300.6773
   12000    298.30858
   13000    301.57471
   14000    299.50815
   15000    299.51947
   16000     298.0866
   17000    299.35344
   18000    299.79417
   19000    299.40102
   20000    301.19597
   21000    299.85621
   22000    299.22963
   23000    298.83165
   24000    300.68332
   25000    300.35011
   26000    300.14229
   27000    299.93316
   28000    299.63163
   29000    299.66903
   30000    299.33808
   31000    299.07359
   32000    300.66554
   33000    299.51221
   34000    300.63044
   35000    299.59757
   36000     300.9295
   37000    299.88585
   38000    300.68021
   39000    300.37199
   40000    300.11576
   41000    300.28693
   42000    300.65211
   43000    299.60253
   44000    299.88377
   45000    300.01359
   45001    300.00561
Loop time of 757.55 on 32 procs for 40000 steps with 193600 atoms

velocity	all scale $T
velocity	all scale 300
unfix		NVT

fix		NVE all nve
fix		hot all langevin 319.9225 319.9225 0.05 389516 tally yes
fix_modify	hot temp Thot
fix		cold all langevin 280.0775 280.0775 0.05 46579 tally yes
fix_modify	cold temp Tcold

thermo_style	custom step temp c_Thot c_Tcold f_hot f_cold
run		100000
Step Temp c_Thot c_Tcold f_hot f_cold
45001          300    302.66788    301.24955           -0           -0
Averages over the last 51 of 102 rows, steps 96000 to 145001:
Temp c_Thot c_Tcold f_hot f_cold
299.907 318.427 281.583 -2187.93 2205.06
Loop time of 2051.77 on 32 procs for 100000 steps with 193600 atoms

# thermal conductivity calculation
# reset langevin thermostats to zero energy accumulation
reset_timestep 0
thermo		$c
thermo		500000
compute		ke all ke/atom
variable	temp atom c_ke/1.5/8.617332478e-5
fix		hot all langevin 319.9225 319.9225 0.05 389516 tally yes
fix_modify	hot temp Thot
fix		cold all langevin 280.0775 280.0775 0.05 46579 tally yes
fix_modify	cold temp Tcold

compute		ch all chunk/atom bin/1d x lower 0.02 units reduced
fix		11 all ave/chunk 100 5000 500000 ch v_temp file sw_5.langevin
thermo_style	custom step temp c_Thot c_Tcold f_hot f_cold

run		500000
Step Temp c_Thot c_Tcold f_hot f_cold
0    300.32275    316.74417    277.87613           -0           -0
Loop time of 10260.3 on 32 procs for 500000 steps with 193600 atoms

clear
next		P
jump		Si.in
 units       metal
#----------------------------- User Input Variables --------------------------------------
################### Geometrical Parameters ###############################
variable	P index 5 6 7 8
variable	W equal 22
# Lattice Constant
variable	LC equal 5.43
# Length
variable	L equal 50
# Width
#variable	W equal 6
# Height
variable	H equal 22
################### Simulation Condition ###############################
#DT/DX=cte
variable	cte equal 1.5938
log         sw_6.log
