# temperature
variable	T equal 300
#cold region temperature
#variable        tlo equal 275
variable        tlo equal 300-50*1.5938/4.0
#hot region temperature
variable        thi equal 300+50*1.5938/4.0

#time step (picoseconds)
variable	dt equal 0.0005 # 0.5 femtoseconds
#number of time steps for NPT
variable	tnpt equal 5000
#number of time steps for NVT
variable	tnvt equal 40000
#number of time steps for first NVE
variable	t1nve equal 100000
#number of time steps for second NVE
variable	t2nve equal 500000

################### Variable Based on LAMMPS Documentation ######################
variable	a equal 100
variable	c equal 500000
variable	b equal $c/$a
variable	b equal 500000/$a
variable	b equal 500000/100
variable	tdamp equal 0.0005*100
variable	pdamp equal 0.0005*1000

#----------------------------------------------------------------------------------------
# setup problem
dimension       3
boundary        p p p
atom_style      atomic
lattice 	diamond 5.43 origin 0.0 0.0 0.0 orient x 1 0 0 orient y 0 1 0 orient z 0 0 1
Lattice spacing in x,y,z = 5.43 5.43 5.43
region          0 block 0 $L 0 $W 0 $H units lattice side in
region          0 block 0 50 0 $W 0 $H units lattice side in
region          0 block 0 50 0 22 0 $H units lattice side in
region          0 block 0 50 0 22 0 22 units lattice side in
create_box      1 0
Created orthogonal box = (0 0 0) to (271.5 119.46 119.46)
create_atoms    1 region 0
Created 193600 atoms
mass		1 28.0855
#dump_modify	1 element Si

############################################
pair_style   sw
pair_coeff   * * Si17.sw Si
thermo		100
thermo_style custom step lx
min_style cg
minimize 0.0 1.0e-8 10000 100000
  update every 1 steps, delay 0 steps, check yes
Step Lx
       0        271.5
       1        271.5
Loop time of 0.0421925 on 32 procs for 1 steps with 193600 atoms

Minimization stats:
  Stopping criterion = force tolerance
  Energy initial, next-to-last, final =
  Force two-norm initial, final = 8.30875e-11 8.30321e-11
  Force max component initial, final = 4.81903e-13 4.8439e-13
  Final line search alpha, max atom move = 1 4.8439e-13
  Iterations, force evaluations = 1 2

timestep     0.0005
velocity 	all create $T 492845
velocity 	all create 300 492845

fix 		NPT all npt temp 300 300 0.05 iso 0.0 0.0 0.5
thermo		100
thermo_style custom step lx press
run		5000
Step Lx Press
1        271.5   -76941.951
Averages over the last 26 of 52 rows, steps 2600 to 5001:
Lx Press
264.986 -0.300307
Loop time of 83.7367 on 32 procs for 5000 steps with 193600 atoms

unfix		NPT
variable	length equal lx/5.43

################### Geometrical Parameters After Relaxation ###############################
# Thermostat_width
variable	TW equal 48.8005532944382/40
# Hot_Start
variable	hs equal 48.8005532944382/4-1.22001383236096
# Hot_End
variable	he equal 48.8005532944382/4+1.22001383236096
# Cold_Start
variable	cs equal 3*48.8005532944382/4-1.22001383236096
# Cold_End
variable	ce equal 3*48.8005532944382/4+1.22001383236096
###########################################################################################

################### Defining Thermostat ###################################################
region 		hot block 10.9801244912486 13.4201521559705 EDGE EDGE EDGE EDGE
region 		cold block 35.3804011384677 37.8204288031896 EDGE EDGE EDGE EDGE
group		test region cold
9569 atoms in group test
group		test1 region hot
9568 atoms in group test1
compute		Thot all temp/region hot
compute         Tcold all temp/region cold
###########################################################################################

fix		NVT all nvt temp 300 300 0.05
thermo		1000
thermo_style	custom step temp
run		40000
Step Temp
    5001     298.9699
    6000    300.49716
    7000    299.92413
    8000    298.59496
    9000    299.78524
   10000    298.58415
   11000    299.63553
   12000    301.42986
   13000    297.98484
   14000    299.40015
   15000    299.29799
   16000     299.7153
   17000    301.51253
   18000    301.22048
   19000    299.46332
   20000     300.3878
   21000    300.84781
   22000    300.99983
   23000    300.06835
   24000      300.322
   25000    300.62739
   26000    300.37679
   27000    299.19651
   28000     299.1355
   29000     299.0327
   30000    299.93913
   31000    300.71129
   32000    300.85939
   33000    300.90953
   34000    299.51145
   35000    299.69143
   36000    300.05035
   37000    300.15995
   38000    300.39958
   39000    299.72394
   40000    300.15615
   41000    300.45984
   42000    300.63446
   43000    299.13568
   44000    300.09191
   45000    297.82145
   45001    297.77841
Loop time of 616.63 on 32 procs for 40000 steps with 193600 atoms

velocity	all scale $T
velocity	all scale 300
unfix		NVT

fix		NVE all nve
fix		hot all langevin 319.9225 319.9225 0.05 389516 tally yes
fix_modify	hot temp Thot
fix		cold all langevin 280.0775 280.0775 0.05 46579 tally yes
fix_modify	cold temp Tcold

thermo_style	custom step temp c_Thot c_Tcold f_hot f_cold
run		100000
Step Temp c_Thot c_Tcold f_hot f_cold
45001          300    299.09292    296.53842           -0           -0
Averages over the last 51 of 102 rows, steps 96000 to 145001:
Temp c_Thot c_Tcold f_hot f_cold
299.617 319.093 281.605 -2196.41 2240.11
Loop time of 1655.22 on 32 procs for 100000 steps with 193600 atoms

# thermal conductivity calculation
# reset langevin thermostats to zero energy accumulation
reset_timestep 0
thermo		$c
thermo		500000
compute		ke all ke/atom
variable	temp atom c_ke/1.5/8.617332478e-5
fix		hot all langevin 319.9225 319.9225 0.05 389516 tally yes
fix_modify	hot temp Thot
fix		cold all langevin 280.0775 280.0775 0.05 46579 tally yes
fix_modify	cold temp Tcold

compute		ch all chunk/atom bin/1d x lower 0.02 units reduced
fix		11 all ave/chunk 100 5000 500000 ch v_temp file sw_17.langevin
thermo_style	custom step temp c_Thot c_Tcold f_hot f_cold

run		500000
Step Temp c_Thot c_Tcold f_hot f_cold
0    299.20999    317.52551    280.86989           -0           -0
Loop time of 8391.68 on 32 procs for 500000 steps with 193600 atoms

clear
next		P
jump		Si.in
 units       metal
#----------------------------- User Input Variables --------------------------------------
################### Geometrical Parameters ###############################
variable	P index 17 18 19 20
variable	W equal 22
# Lattice Constant
variable	LC equal 5.43
# Length
variable	L equal 50
# Width
#variable	W equal 6
# Height
variable	H equal 22
################### Simulation Condition ###############################
#DT/DX=cte
variable	cte equal 1.5938
log         sw_18.log
