# temperature
variable	T equal 300
#cold region temperature
#variable        tlo equal 275
variable        tlo equal 300-50*1.5938/4.0
#hot region temperature
variable        thi equal 300+50*1.5938/4.0

#time step (picoseconds)
variable	dt equal 0.0005 # 0.5 femtoseconds
#number of time steps for NPT
variable	tnpt equal 5000
#number of time steps for NVT
variable	tnvt equal 40000
#number of time steps for first NVE
variable	t1nve equal 100000
#number of time steps for second NVE
variable	t2nve equal 500000

################### Variable Based on LAMMPS Documentation ######################
variable	a equal 100
variable	c equal 500000
variable	b equal $c/$a
variable	b equal 500000/$a
variable	b equal 500000/100
variable	tdamp equal 0.0005*100
variable	pdamp equal 0.0005*1000

#----------------------------------------------------------------------------------------
# setup problem
dimension       3
boundary        p p p
atom_style      atomic
lattice 	diamond 5.43 origin 0.0 0.0 0.0 orient x 1 0 0 orient y 0 1 0 orient z 0 0 1
Lattice spacing in x,y,z = 5.43 5.43 5.43
region          0 block 0 $L 0 $W 0 $H units lattice side in
region          0 block 0 50 0 $W 0 $H units lattice side in
region          0 block 0 50 0 22 0 $H units lattice side in
region          0 block 0 50 0 22 0 22 units lattice side in
create_box      1 0
Created orthogonal box = (0 0 0) to (271.5 119.46 119.46)
create_atoms    1 region 0
Created 193600 atoms
mass		1 28.0855
#dump_modify	1 element Si

############################################
pair_style   sw
pair_coeff   * * Si10.sw Si
thermo		100
thermo_style custom step lx
min_style cg
minimize 0.0 1.0e-8 10000 100000
  update every 1 steps, delay 0 steps, check yes
Step Lx
       0        271.5
       1        271.5
Loop time of 0.304542 on 32 procs for 1 steps with 193600 atoms

Minimization stats:
  Stopping criterion = force tolerance
  Energy initial, next-to-last, final =
  Force two-norm initial, final = 9.414e-11 9.40744e-11
  Force max component initial, final = 5.50796e-13 5.52697e-13
  Final line search alpha, max atom move = 1 5.52697e-13
  Iterations, force evaluations = 1 2

timestep     0.0005
velocity 	all create $T 492845
velocity 	all create 300 492845

fix 		NPT all npt temp 300 300 0.05 iso 0.0 0.0 0.5
thermo		100
thermo_style custom step lx press
run		5000
Step Lx Press
1        271.5    30071.984
Averages over the last 26 of 52 rows, steps 2600 to 5001:
Lx Press
274.33 1.03095
Loop time of 234.091 on 32 procs for 5000 steps with 193600 atoms

unfix		NPT
variable	length equal lx/5.43

################### Geometrical Parameters After Relaxation ###############################
# Thermostat_width
variable	TW equal 50.5214113812339/40
# Hot_Start
variable	hs equal 50.5214113812339/4-1.26303528453085
# Hot_End
variable	he equal 50.5214113812339/4+1.26303528453085
# Cold_Start
variable	cs equal 3*50.5214113812339/4-1.26303528453085
# Cold_End
variable	ce equal 3*50.5214113812339/4+1.26303528453085
###########################################################################################

################### Defining Thermostat ###################################################
region 		hot block 11.3673175607776 13.8933881298393 EDGE EDGE EDGE EDGE
region 		cold block 36.6280232513946 39.1540938204563 EDGE EDGE EDGE EDGE
group		test region cold
9555 atoms in group test
group		test1 region hot
9603 atoms in group test1
compute		Thot all temp/region hot
compute         Tcold all temp/region cold
###########################################################################################

fix		NVT all nvt temp 300 300 0.05
thermo		1000
thermo_style	custom step temp
run		40000
Step Temp
    5001     300.7616
    6000    298.67622
    7000    296.14577
    8000     300.7986
    9000     299.9888
   10000    299.63415
   11000    299.95439
   12000    301.30781
   13000    302.37122
   14000    299.10322
   15000    299.80431
   16000     299.9998
   17000    298.61319
   18000    299.39867
   19000    298.38777
   20000    300.14074
   21000    299.74127
   22000    299.25654
   23000    299.92737
   24000    299.54589
   25000    300.78335
   26000    300.34137
   27000    300.40012
   28000    299.87013
   29000    299.30885
   30000    300.77762
   31000    300.22225
   32000     299.2881
   33000    299.23532
   34000    299.87633
   35000    299.35882
   36000    301.01398
   37000    300.22314
   38000    299.58417
   39000     299.5794
   40000     301.3527
   41000    299.67761
   42000    299.15748
   43000    299.64677
   44000    301.25431
   45000    299.01677
   45001    299.01173
Loop time of 1815.6 on 32 procs for 40000 steps with 193600 atoms

velocity	all scale $T
velocity	all scale 300
unfix		NVT

fix		NVE all nve
fix		hot all langevin 319.9225 319.9225 0.05 389516 tally yes
fix_modify	hot temp Thot
fix		cold all langevin 280.0775 280.0775 0.05 46579 tally yes
fix_modify	cold temp Tcold

thermo_style	custom step temp c_Thot c_Tcold f_hot f_cold
run		100000
Step Temp c_Thot c_Tcold f_hot f_cold
45001          300    302.08079    298.80786           -0           -0
Averages over the last 51 of 102 rows, steps 96000 to 145001:
Temp c_Thot c_Tcold f_hot f_cold
299.769 318.17 281.761 -2720.29 2714.82
Loop time of 4666.48 on 32 procs for 100000 steps with 193600 atoms

# thermal conductivity calculation
# reset langevin thermostats to zero energy accumulation
reset_timestep 0
thermo		$c
thermo		500000
compute		ke all ke/atom
variable	temp atom c_ke/1.5/8.617332478e-5
fix		hot all langevin 319.9225 319.9225 0.05 389516 tally yes
fix_modify	hot temp Thot
fix		cold all langevin 280.0775 280.0775 0.05 46579 tally yes
fix_modify	cold temp Tcold

compute		ch all chunk/atom bin/1d x lower 0.02 units reduced
fix		11 all ave/chunk 100 5000 500000 ch v_temp file sw_10.langevin
thermo_style	custom step temp c_Thot c_Tcold f_hot f_cold

run		500000
Step Temp c_Thot c_Tcold f_hot f_cold
0    299.25086    315.62042    281.02328           -0           -0
Loop time of 23245.3 on 32 procs for 500000 steps with 193600 atoms

clear
next		P
jump		Si.in
 units       metal
#----------------------------- User Input Variables --------------------------------------
################### Geometrical Parameters ###############################
variable	P index 9 10 11 12
variable	W equal 22
# Lattice Constant
variable	LC equal 5.43
# Length
variable	L equal 50
# Width
#variable	W equal 6
# Height
variable	H equal 22
################### Simulation Condition ###############################
#DT/DX=cte
variable	cte equal 1.5938
log         sw_11.log
