# temperature
variable	T equal 300
#cold region temperature
#variable        tlo equal 275
variable        tlo equal 300-50*1.5938/4.0
#hot region temperature
variable        thi equal 300+50*1.5938/4.0

#time step (picoseconds)
variable	dt equal 0.0005 # 0.5 femtoseconds
#number of time steps for NPT
variable	tnpt equal 5000
#number of time steps for NVT
variable	tnvt equal 40000
#number of time steps for first NVE
variable	t1nve equal 100000
#number of time steps for second NVE
variable	t2nve equal 500000

################### Variable Based on LAMMPS Documentation ######################
variable	a equal 100
variable	c equal 500000
variable	b equal $c/$a
variable	b equal 500000/$a
variable	b equal 500000/100
variable	tdamp equal 0.0005*100
variable	pdamp equal 0.0005*1000

#----------------------------------------------------------------------------------------
# setup problem
dimension       3
boundary        p p p
atom_style      atomic
lattice 	diamond 5.43 origin 0.0 0.0 0.0 orient x 1 0 0 orient y 0 1 0 orient z 0 0 1
Lattice spacing in x,y,z = 5.43 5.43 5.43
region          0 block 0 $L 0 $W 0 $H units lattice side in
region          0 block 0 50 0 $W 0 $H units lattice side in
region          0 block 0 50 0 22 0 $H units lattice side in
region          0 block 0 50 0 22 0 22 units lattice side in
create_box      1 0
Created orthogonal box = (0 0 0) to (271.5 119.46 119.46)
create_atoms    1 region 0
Created 193600 atoms
mass		1 28.0855
#dump_modify	1 element Si

############################################
pair_style   sw
pair_coeff   * * Si13.sw Si
thermo		100
thermo_style custom step lx
min_style cg
minimize 0.0 1.0e-8 10000 100000
  update every 1 steps, delay 0 steps, check yes
Step Lx
       0        271.5
       1        271.5
Loop time of 0.0419363 on 32 procs for 1 steps with 193600 atoms

Minimization stats:
  Stopping criterion = force tolerance
  Energy initial, next-to-last, final =
  Force two-norm initial, final = 6.83309e-11 6.82833e-11
  Force max component initial, final = 3.96015e-13 3.97515e-13
  Final line search alpha, max atom move = 1 3.97515e-13
  Iterations, force evaluations = 1 2

timestep     0.0005
velocity 	all create $T 492845
velocity 	all create 300 492845

fix 		NPT all npt temp 300 300 0.05 iso 0.0 0.0 0.5
thermo		100
thermo_style custom step lx press
run		5000
Step Lx Press
1        271.5   -106208.81
Averages over the last 26 of 52 rows, steps 2600 to 5001:
Lx Press
261.027 0.773938
Loop time of 75.5721 on 32 procs for 5000 steps with 193600 atoms

unfix		NPT
variable	length equal lx/5.43

################### Geometrical Parameters After Relaxation ###############################
# Thermostat_width
variable	TW equal 48.0709893030972/40
# Hot_Start
variable	hs equal 48.0709893030972/4-1.20177473257743
# Hot_End
variable	he equal 48.0709893030972/4+1.20177473257743
# Cold_Start
variable	cs equal 3*48.0709893030972/4-1.20177473257743
# Cold_End
variable	ce equal 3*48.0709893030972/4+1.20177473257743
###########################################################################################

################### Defining Thermostat ###################################################
region 		hot block 10.8159725931969 13.2195220583517 EDGE EDGE EDGE EDGE
region 		cold block 34.8514672447455 37.2550167099003 EDGE EDGE EDGE EDGE
group		test region cold
9571 atoms in group test
group		test1 region hot
9571 atoms in group test1
compute		Thot all temp/region hot
compute         Tcold all temp/region cold
###########################################################################################

fix		NVT all nvt temp 300 300 0.05
thermo		1000
thermo_style	custom step temp
run		40000
Step Temp
    5001    297.98324
    6000    300.85206
    7000    300.18903
    8000    300.68079
    9000    299.79735
   10000    300.45126
   11000     300.8242
   12000    299.71978
   13000    300.94011
   14000    298.54209
   15000    300.33945
   16000    300.69689
   17000    300.58243
   18000    301.59916
   19000    299.86987
   20000    300.47318
   21000    301.22161
   22000    301.57358
   23000    300.64817
   24000    299.76413
   25000    300.98763
   26000    299.63725
   27000     298.9471
   28000    299.27185
   29000    298.56827
   30000    299.53189
   31000    300.25818
   32000    299.97437
   33000    300.45329
   34000    299.66725
   35000    300.59856
   36000    298.85411
   37000    299.91692
   38000    298.96202
   39000    299.66381
   40000    301.90454
   41000    298.66229
   42000    299.40841
   43000    300.29111
   44000    300.99249
   45000     299.1323
   45001    299.13677
Loop time of 568.325 on 32 procs for 40000 steps with 193600 atoms

velocity	all scale $T
velocity	all scale 300
unfix		NVT

fix		NVE all nve
fix		hot all langevin 319.9225 319.9225 0.05 389516 tally yes
fix_modify	hot temp Thot
fix		cold all langevin 280.0775 280.0775 0.05 46579 tally yes
fix_modify	cold temp Tcold

thermo_style	custom step temp c_Thot c_Tcold f_hot f_cold
run		100000
Step Temp c_Thot c_Tcold f_hot f_cold
45001          300    299.68166    302.34626           -0           -0
Averages over the last 51 of 102 rows, steps 96000 to 145001:
Temp c_Thot c_Tcold f_hot f_cold
299.988 318.786 280.87 -2150.49 2130.2
Loop time of 1568.75 on 32 procs for 100000 steps with 193600 atoms

# thermal conductivity calculation
# reset langevin thermostats to zero energy accumulation
reset_timestep 0
thermo		$c
thermo		500000
compute		ke all ke/atom
variable	temp atom c_ke/1.5/8.617332478e-5
fix		hot all langevin 319.9225 319.9225 0.05 389516 tally yes
fix_modify	hot temp Thot
fix		cold all langevin 280.0775 280.0775 0.05 46579 tally yes
fix_modify	cold temp Tcold

compute		ch all chunk/atom bin/1d x lower 0.02 units reduced
fix		11 all ave/chunk 100 5000 500000 ch v_temp file sw_13.langevin
thermo_style	custom step temp c_Thot c_Tcold f_hot f_cold

run		500000
Step Temp c_Thot c_Tcold f_hot f_cold
0    300.55646    318.04143    282.55186           -0           -0
Loop time of 7814.2 on 32 procs for 500000 steps with 193600 atoms

clear
next		P
jump		Si.in
 units       metal
#----------------------------- User Input Variables --------------------------------------
################### Geometrical Parameters ###############################
variable	P index 13 14 15 16
variable	W equal 22
# Lattice Constant
variable	LC equal 5.43
# Length
variable	L equal 50
# Width
#variable	W equal 6
# Height
variable	H equal 22
################### Simulation Condition ###############################
#DT/DX=cte
variable	cte equal 1.5938
log         sw_14.log
