# temperature
variable	T equal 300
#cold region temperature
#variable        tlo equal 275
variable        tlo equal 300-50*1.5938/4.0
#hot region temperature
variable        thi equal 300+50*1.5938/4.0

#time step (picoseconds)
variable	dt equal 0.0005 # 0.5 femtoseconds
#number of time steps for NPT
variable	tnpt equal 5000
#number of time steps for NVT
variable	tnvt equal 40000
#number of time steps for first NVE
variable	t1nve equal 100000
#number of time steps for second NVE
variable	t2nve equal 500000

################### Variable Based on LAMMPS Documentation ######################
variable	a equal 100
variable	c equal 500000
variable	b equal $c/$a
variable	b equal 500000/$a
variable	b equal 500000/100
variable	tdamp equal 0.0005*100
variable	pdamp equal 0.0005*1000

#----------------------------------------------------------------------------------------
# setup problem
dimension       3
boundary        p p p
atom_style      atomic
lattice 	diamond 5.43 origin 0.0 0.0 0.0 orient x 1 0 0 orient y 0 1 0 orient z 0 0 1
Lattice spacing in x,y,z = 5.43 5.43 5.43
region          0 block 0 $L 0 $W 0 $H units lattice side in
region          0 block 0 50 0 $W 0 $H units lattice side in
region          0 block 0 50 0 22 0 $H units lattice side in
region          0 block 0 50 0 22 0 22 units lattice side in
create_box      1 0
Created orthogonal box = (0 0 0) to (271.5 119.46 119.46)
create_atoms    1 region 0
Created 193600 atoms
mass		1 28.0855
#dump_modify	1 element Si

############################################
pair_style   sw
pair_coeff   * * Si12.sw Si
thermo		100
thermo_style custom step lx
min_style cg
minimize 0.0 1.0e-8 10000 100000
  update every 1 steps, delay 0 steps, check yes
Step Lx
       0        271.5
       1        271.5
Loop time of 0.0426487 on 32 procs for 1 steps with 193600 atoms

Minimization stats:
  Stopping criterion = force tolerance
  Energy initial, next-to-last, final =
  Force two-norm initial, final = 8.04332e-11 8.03737e-11
  Force max component initial, final = 4.67732e-13 4.69569e-13
  Final line search alpha, max atom move = 1 4.69569e-13
  Iterations, force evaluations = 1 2

timestep     0.0005
velocity 	all create $T 492845
velocity 	all create 300 492845

fix 		NPT all npt temp 300 300 0.05 iso 0.0 0.0 0.5
thermo		100
thermo_style custom step lx press
run		5000
Step Lx Press
1        271.5    -62971.54
Averages over the last 26 of 52 rows, steps 2600 to 5001:
Lx Press
265.525 0.0793082
Loop time of 78.949 on 32 procs for 5000 steps with 193600 atoms

unfix		NPT
variable	length equal lx/5.43

################### Geometrical Parameters After Relaxation ###############################
# Thermostat_width
variable	TW equal 48.8992297259154/40
# Hot_Start
variable	hs equal 48.8992297259154/4-1.22248074314789
# Hot_End
variable	he equal 48.8992297259154/4+1.22248074314789
# Cold_Start
variable	cs equal 3*48.8992297259154/4-1.22248074314789
# Cold_End
variable	ce equal 3*48.8992297259154/4+1.22248074314789
###########################################################################################

################### Defining Thermostat ###################################################
region 		hot block 11.002326688331 13.4472881746267 EDGE EDGE EDGE EDGE
region 		cold block 35.4519415512887 37.8969030375844 EDGE EDGE EDGE EDGE
group		test region cold
9572 atoms in group test
group		test1 region hot
9585 atoms in group test1
compute		Thot all temp/region hot
compute         Tcold all temp/region cold
###########################################################################################

fix		NVT all nvt temp 300 300 0.05
thermo		1000
thermo_style	custom step temp
run		40000
Step Temp
    5001     300.4516
    6000    298.67944
    7000    299.54179
    8000    300.86532
    9000    298.03503
   10000    301.21797
   11000    298.86695
   12000    301.33804
   13000    301.35406
   14000    299.34647
   15000    301.34907
   16000    300.24003
   17000    298.78203
   18000    300.85574
   19000    299.40331
   20000    298.65167
   21000    301.12401
   22000    300.84353
   23000    299.91328
   24000    299.83475
   25000    299.82339
   26000      300.257
   27000    300.28775
   28000    300.13623
   29000     300.5075
   30000    299.97609
   31000    300.43386
   32000    300.50973
   33000    301.22602
   34000    300.19119
   35000    298.93529
   36000    301.39193
   37000    300.73586
   38000    300.07947
   39000    301.07933
   40000    301.23023
   41000    299.05729
   42000    299.90783
   43000    299.90282
   44000     300.2378
   45000    299.49063
   45001    299.44412
Loop time of 622.348 on 32 procs for 40000 steps with 193600 atoms

velocity	all scale $T
velocity	all scale 300
unfix		NVT

fix		NVE all nve
fix		hot all langevin 319.9225 319.9225 0.05 389516 tally yes
fix_modify	hot temp Thot
fix		cold all langevin 280.0775 280.0775 0.05 46579 tally yes
fix_modify	cold temp Tcold

thermo_style	custom step temp c_Thot c_Tcold f_hot f_cold
run		100000
Step Temp c_Thot c_Tcold f_hot f_cold
45001          300    302.36895    297.50762           -0           -0
Averages over the last 51 of 102 rows, steps 96000 to 145001:
Temp c_Thot c_Tcold f_hot f_cold
299.842 318.037 281.658 -2613.81 2630.02
Loop time of 1703.67 on 32 procs for 100000 steps with 193600 atoms

# thermal conductivity calculation
# reset langevin thermostats to zero energy accumulation
reset_timestep 0
thermo		$c
thermo		500000
compute		ke all ke/atom
variable	temp atom c_ke/1.5/8.617332478e-5
fix		hot all langevin 319.9225 319.9225 0.05 389516 tally yes
fix_modify	hot temp Thot
fix		cold all langevin 280.0775 280.0775 0.05 46579 tally yes
fix_modify	cold temp Tcold

compute		ch all chunk/atom bin/1d x lower 0.02 units reduced
fix		11 all ave/chunk 100 5000 500000 ch v_temp file sw_12.langevin
thermo_style	custom step temp c_Thot c_Tcold f_hot f_cold

run		500000
Step Temp c_Thot c_Tcold f_hot f_cold
0    299.85842    320.49336    283.54172           -0           -0
Loop time of 8445.49 on 32 procs for 500000 steps with 193600 atoms

clear
next		P
jump		Si.in
