# temperature
variable	T equal 300
#cold region temperature
#variable        tlo equal 275
variable        tlo equal 300-50*1.5938/4.0
#hot region temperature
variable        thi equal 300+50*1.5938/4.0

#time step (picoseconds)
variable	dt equal 0.0005 # 0.5 femtoseconds
#number of time steps for NPT
variable	tnpt equal 5000
#number of time steps for NVT
variable	tnvt equal 40000
#number of time steps for first NVE
variable	t1nve equal 100000
#number of time steps for second NVE
variable	t2nve equal 500000

################### Variable Based on LAMMPS Documentation ######################
variable	a equal 100
variable	c equal 500000
variable	b equal $c/$a
variable	b equal 500000/$a
variable	b equal 500000/100
variable	tdamp equal 0.0005*100
variable	pdamp equal 0.0005*1000

#----------------------------------------------------------------------------------------
# setup problem
dimension       3
boundary        p p p
atom_style      atomic
lattice 	diamond 5.43 origin 0.0 0.0 0.0 orient x 1 0 0 orient y 0 1 0 orient z 0 0 1
Lattice spacing in x,y,z = 5.43 5.43 5.43
region          0 block 0 $L 0 $W 0 $H units lattice side in
region          0 block 0 50 0 $W 0 $H units lattice side in
region          0 block 0 50 0 22 0 $H units lattice side in
region          0 block 0 50 0 22 0 22 units lattice side in
create_box      1 0
Created orthogonal box = (0 0 0) to (271.5 119.46 119.46)
create_atoms    1 region 0
Created 193600 atoms
mass		1 28.0855
#dump_modify	1 element Si

############################################
pair_style   sw
pair_coeff   * * Si19.sw Si
thermo		100
thermo_style custom step lx
min_style cg
minimize 0.0 1.0e-8 10000 100000
  update every 1 steps, delay 0 steps, check yes
Step Lx
       0        271.5
       1        271.5
Loop time of 0.0419103 on 32 procs for 1 steps with 193600 atoms

Minimization stats:
  Stopping criterion = force tolerance
  Energy initial, next-to-last, final =
  Force two-norm initial, final = 8.64613e-11 8.63996e-11
  Force max component initial, final = 5.03988e-13 5.05096e-13
  Final line search alpha, max atom move = 1 5.05096e-13
  Iterations, force evaluations = 1 2

timestep     0.0005
velocity 	all create $T 492845
velocity 	all create 300 492845

fix 		NPT all npt temp 300 300 0.05 iso 0.0 0.0 0.5
thermo		100
thermo_style custom step lx press
run		5000
Step Lx Press
1        271.5   -92204.753
Averages over the last 26 of 52 rows, steps 2600 to 5001:
Lx Press
263.735 -1.16115
Loop time of 78.2422 on 32 procs for 5000 steps with 193600 atoms

unfix		NPT
variable	length equal lx/5.43

################### Geometrical Parameters After Relaxation ###############################
# Thermostat_width
variable	TW equal 48.5696911988167/40
# Hot_Start
variable	hs equal 48.5696911988167/4-1.21424227997042
# Hot_End
variable	he equal 48.5696911988167/4+1.21424227997042
# Cold_Start
variable	cs equal 3*48.5696911988167/4-1.21424227997042
# Cold_End
variable	ce equal 3*48.5696911988167/4+1.21424227997042
###########################################################################################

################### Defining Thermostat ###################################################
region 		hot block 10.9281805197338 13.3566650796746 EDGE EDGE EDGE EDGE
region 		cold block 35.2130261191421 37.6415106790829 EDGE EDGE EDGE EDGE
group		test region cold
9560 atoms in group test
group		test1 region hot
9599 atoms in group test1
compute		Thot all temp/region hot
compute         Tcold all temp/region cold
###########################################################################################

fix		NVT all nvt temp 300 300 0.05
thermo		1000
thermo_style	custom step temp
run		40000
Step Temp
    5001    297.98978
    6000     300.0322
    7000    298.66798
    8000    300.20284
    9000    301.25715
   10000    302.29113
   11000    299.64226
   12000     299.6962
   13000    298.86287
   14000    300.22852
   15000    299.97125
   16000    298.69171
   17000    299.58993
   18000    300.66445
   19000    299.43994
   20000    300.94229
   21000    299.81698
   22000    300.39058
   23000    300.68511
   24000    299.24687
   25000    299.79506
   26000    299.55995
   27000    299.31439
   28000    298.28069
   29000    300.60908
   30000    298.36574
   31000    299.87604
   32000    299.66481
   33000    299.96255
   34000     299.4596
   35000    299.53758
   36000    299.81877
   37000     300.0904
   38000    299.00472
   39000    299.23152
   40000    299.68438
   41000    299.79115
   42000    299.36181
   43000    301.07357
   44000    300.01356
   45000    299.62532
   45001    299.55719
Loop time of 564.431 on 32 procs for 40000 steps with 193600 atoms

velocity	all scale $T
velocity	all scale 300
unfix		NVT

fix		NVE all nve
fix		hot all langevin 319.9225 319.9225 0.05 389516 tally yes
fix_modify	hot temp Thot
fix		cold all langevin 280.0775 280.0775 0.05 46579 tally yes
fix_modify	cold temp Tcold

thermo_style	custom step temp c_Thot c_Tcold f_hot f_cold
run		100000
Step Temp c_Thot c_Tcold f_hot f_cold
45001          300    305.39093    298.52486           -0           -0
Averages over the last 51 of 102 rows, steps 96000 to 145001:
Temp c_Thot c_Tcold f_hot f_cold
299.967 318.549 282.098 -2693.81 2709.1
Loop time of 1557.13 on 32 procs for 100000 steps with 193600 atoms

# thermal conductivity calculation
# reset langevin thermostats to zero energy accumulation
reset_timestep 0
thermo		$c
thermo		500000
compute		ke all ke/atom
variable	temp atom c_ke/1.5/8.617332478e-5
fix		hot all langevin 319.9225 319.9225 0.05 389516 tally yes
fix_modify	hot temp Thot
fix		cold all langevin 280.0775 280.0775 0.05 46579 tally yes
fix_modify	cold temp Tcold

compute		ch all chunk/atom bin/1d x lower 0.02 units reduced
fix		11 all ave/chunk 100 5000 500000 ch v_temp file sw_19.langevin
thermo_style	custom step temp c_Thot c_Tcold f_hot f_cold

run		500000
Step Temp c_Thot c_Tcold f_hot f_cold
0    299.92992    319.18562    283.21041           -0           -0
Loop time of 7792.47 on 32 procs for 500000 steps with 193600 atoms

clear
next		P
jump		Si.in
 units       metal
#----------------------------- User Input Variables --------------------------------------
################### Geometrical Parameters ###############################
variable	P index 17 18 19 20
variable	W equal 22
# Lattice Constant
variable	LC equal 5.43
# Length
variable	L equal 50
# Width
#variable	W equal 6
# Height
variable	H equal 22
################### Simulation Condition ###############################
#DT/DX=cte
variable	cte equal 1.5938
log         sw_20.log
