# temperature
variable	T equal 300
#cold region temperature
#variable        tlo equal 275
variable        tlo equal 300-50*1.5938/4.0
#hot region temperature
variable        thi equal 300+50*1.5938/4.0

#time step (picoseconds)
variable	dt equal 0.0005 # 0.5 femtoseconds
#number of time steps for NPT
variable	tnpt equal 5000
#number of time steps for NVT
variable	tnvt equal 40000
#number of time steps for first NVE
variable	t1nve equal 100000
#number of time steps for second NVE
variable	t2nve equal 500000

################### Variable Based on LAMMPS Documentation ######################
variable	a equal 100
variable	c equal 500000
variable	b equal $c/$a
variable	b equal 500000/$a
variable	b equal 500000/100
variable	tdamp equal 0.0005*100
variable	pdamp equal 0.0005*1000

#----------------------------------------------------------------------------------------
# setup problem
dimension       3
boundary        p p p
atom_style      atomic
lattice 	diamond 5.43 origin 0.0 0.0 0.0 orient x 1 0 0 orient y 0 1 0 orient z 0 0 1
Lattice spacing in x,y,z = 5.43 5.43 5.43
region          0 block 0 $L 0 $W 0 $H units lattice side in
region          0 block 0 50 0 $W 0 $H units lattice side in
region          0 block 0 50 0 22 0 $H units lattice side in
region          0 block 0 50 0 22 0 22 units lattice side in
create_box      1 0
Created orthogonal box = (0 0 0) to (271.5 119.46 119.46)
create_atoms    1 region 0
Created 193600 atoms
mass		1 28.0855
#dump_modify	1 element Si

############################################
pair_style   sw
pair_coeff   * * Si14.sw Si
thermo		100
thermo_style custom step lx
min_style cg
minimize 0.0 1.0e-8 10000 100000
  update every 1 steps, delay 0 steps, check yes
Step Lx
       0        271.5
       1        271.5
Loop time of 0.0410362 on 32 procs for 1 steps with 193600 atoms

Minimization stats:
  Stopping criterion = force tolerance
  Energy initial, next-to-last, final =
  Force two-norm initial, final = 7.9234e-11 7.91765e-11
  Force max component initial, final = 4.60616e-13 4.62796e-13
  Final line search alpha, max atom move = 1 4.62796e-13
  Iterations, force evaluations = 1 2

timestep     0.0005
velocity 	all create $T 492845
velocity 	all create 300 492845

fix 		NPT all npt temp 300 300 0.05 iso 0.0 0.0 0.5
thermo		100
thermo_style custom step lx press
run		5000
Step Lx Press
1        271.5   -54811.799
Averages over the last 26 of 52 rows, steps 2600 to 5001:
Lx Press
266.244 -5.03521
Loop time of 80.4971 on 32 procs for 5000 steps with 193600 atoms

unfix		NPT
variable	length equal lx/5.43

################### Geometrical Parameters After Relaxation ###############################
# Thermostat_width
variable	TW equal 49.0331278529619/40
# Hot_Start
variable	hs equal 49.0331278529619/4-1.22582819632405
# Hot_End
variable	he equal 49.0331278529619/4+1.22582819632405
# Cold_Start
variable	cs equal 3*49.0331278529619/4-1.22582819632405
# Cold_End
variable	ce equal 3*49.0331278529619/4+1.22582819632405
###########################################################################################

################### Defining Thermostat ###################################################
region 		hot block 11.0324537669164 13.4841101595645 EDGE EDGE EDGE EDGE
region 		cold block 35.5490176933974 38.0006740860455 EDGE EDGE EDGE EDGE
group		test region cold
9604 atoms in group test
group		test1 region hot
9566 atoms in group test1
compute		Thot all temp/region hot
compute         Tcold all temp/region cold
###########################################################################################

fix		NVT all nvt temp 300 300 0.05
thermo		1000
thermo_style	custom step temp
run		40000
Step Temp
    5001    301.93067
    6000     297.7753
    7000    298.36574
    8000    299.80811
    9000    298.07693
   10000    299.12934
   11000    300.69772
   12000    299.11557
   13000    299.48608
   14000    301.74164
   15000    299.94187
   16000    301.00958
   17000    299.65815
   18000    300.69098
   19000    301.28465
   20000    300.03569
   21000    299.62539
   22000    299.41827
   23000    299.71704
   24000    300.40119
   25000    300.21506
   26000    299.34301
   27000    300.56387
   28000     300.2711
   29000    299.91374
   30000    300.44529
   31000    300.23715
   32000    300.06761
   33000    299.59462
   34000    301.16428
   35000    299.26448
   36000    300.14942
   37000    300.47812
   38000    301.33573
   39000    300.21448
   40000    300.25859
   41000    300.07948
   42000    300.08426
   43000    299.91485
   44000    300.17974
   45000     300.0349
   45001    300.03007
Loop time of 629.195 on 32 procs for 40000 steps with 193600 atoms

velocity	all scale $T
velocity	all scale 300
unfix		NVT

fix		NVE all nve
fix		hot all langevin 319.9225 319.9225 0.05 389516 tally yes
fix_modify	hot temp Thot
fix		cold all langevin 280.0775 280.0775 0.05 46579 tally yes
fix_modify	cold temp Tcold

thermo_style	custom step temp c_Thot c_Tcold f_hot f_cold
run		100000
Step Temp c_Thot c_Tcold f_hot f_cold
45001          300      301.706    301.46308           -0           -0
Averages over the last 51 of 102 rows, steps 96000 to 145001:
Temp c_Thot c_Tcold f_hot f_cold
300.042 317.973 281.537 -2568.9 2560.89
Loop time of 1722.03 on 32 procs for 100000 steps with 193600 atoms

# thermal conductivity calculation
# reset langevin thermostats to zero energy accumulation
reset_timestep 0
thermo		$c
thermo		500000
compute		ke all ke/atom
variable	temp atom c_ke/1.5/8.617332478e-5
fix		hot all langevin 319.9225 319.9225 0.05 389516 tally yes
fix_modify	hot temp Thot
fix		cold all langevin 280.0775 280.0775 0.05 46579 tally yes
fix_modify	cold temp Tcold

compute		ch all chunk/atom bin/1d x lower 0.02 units reduced
fix		11 all ave/chunk 100 5000 500000 ch v_temp file sw_14.langevin
thermo_style	custom step temp c_Thot c_Tcold f_hot f_cold

run		500000
Step Temp c_Thot c_Tcold f_hot f_cold
0    300.77394    316.59555    280.27216           -0           -0
Loop time of 8557.88 on 32 procs for 500000 steps with 193600 atoms

clear
next		P
jump		Si.in
 units       metal
#----------------------------- User Input Variables --------------------------------------
################### Geometrical Parameters ###############################
variable	P index 13 14 15 16
variable	W equal 22
# Lattice Constant
variable	LC equal 5.43
# Length
variable	L equal 50
# Width
#variable	W equal 6
# Height
variable	H equal 22
################### Simulation Condition ###############################
#DT/DX=cte
variable	cte equal 1.5938
log         sw_15.log
