# temperature
variable	T equal 300
#cold region temperature
#variable        tlo equal 275
variable        tlo equal 300-50*1.5938/4.0
#hot region temperature
variable        thi equal 300+50*1.5938/4.0

#time step (picoseconds)
variable	dt equal 0.0005 # 0.5 femtoseconds
#number of time steps for NPT
variable	tnpt equal 5000
#number of time steps for NVT
variable	tnvt equal 40000
#number of time steps for first NVE
variable	t1nve equal 100000
#number of time steps for second NVE
variable	t2nve equal 500000

################### Variable Based on LAMMPS Documentation ######################
variable	a equal 100
variable	c equal 500000
variable	b equal $c/$a
variable	b equal 500000/$a
variable	b equal 500000/100
variable	tdamp equal 0.0005*100
variable	pdamp equal 0.0005*1000

#----------------------------------------------------------------------------------------
# setup problem
dimension       3
boundary        p p p
atom_style      atomic
lattice 	diamond 5.43 origin 0.0 0.0 0.0 orient x 1 0 0 orient y 0 1 0 orient z 0 0 1
Lattice spacing in x,y,z = 5.43 5.43 5.43
region          0 block 0 $L 0 $W 0 $H units lattice side in
region          0 block 0 50 0 $W 0 $H units lattice side in
region          0 block 0 50 0 22 0 $H units lattice side in
region          0 block 0 50 0 22 0 22 units lattice side in
create_box      1 0
Created orthogonal box = (0 0 0) to (271.5 119.46 119.46)
create_atoms    1 region 0
Created 193600 atoms
mass		1 28.0855
#dump_modify	1 element Si

############################################
pair_style   sw
pair_coeff   * * Si11.sw Si
thermo		100
thermo_style custom step lx
min_style cg
minimize 0.0 1.0e-8 10000 100000
  update every 1 steps, delay 0 steps, check yes
Step Lx
       0        271.5
       1        271.5
Loop time of 0.0448452 on 32 procs for 1 steps with 193600 atoms

Minimization stats:
  Stopping criterion = force tolerance
  Energy initial, next-to-last, final =
  Force two-norm initial, final = 1.02648e-10 1.02574e-10
  Force max component initial, final = 6.00285e-13 6.0211e-13
  Final line search alpha, max atom move = 1 6.0211e-13
  Iterations, force evaluations = 1 2

timestep     0.0005
velocity 	all create $T 492845
velocity 	all create 300 492845

fix 		NPT all npt temp 300 300 0.05 iso 0.0 0.0 0.5
thermo		100
thermo_style custom step lx press
run		5000
Step Lx Press
1        271.5    1168.8615
Averages over the last 26 of 52 rows, steps 2600 to 5001:
Lx Press
271.755 -0.754611
Loop time of 150.342 on 32 procs for 5000 steps with 193600 atoms

unfix		NPT
variable	length equal lx/5.43

################### Geometrical Parameters After Relaxation ###############################
# Thermostat_width
variable	TW equal 50.0470635806375/40
# Hot_Start
variable	hs equal 50.0470635806375/4-1.25117658951594
# Hot_End
variable	he equal 50.0470635806375/4+1.25117658951594
# Cold_Start
variable	cs equal 3*50.0470635806375/4-1.25117658951594
# Cold_End
variable	ce equal 3*50.0470635806375/4+1.25117658951594
###########################################################################################

################### Defining Thermostat ###################################################
region 		hot block 11.2605893056434 13.7629424846753 EDGE EDGE EDGE EDGE
region 		cold block 36.2841210959622 38.7864742749941 EDGE EDGE EDGE EDGE
group		test region cold
9578 atoms in group test
group		test1 region hot
9587 atoms in group test1
compute		Thot all temp/region hot
compute         Tcold all temp/region cold
###########################################################################################

fix		NVT all nvt temp 300 300 0.05
thermo		1000
thermo_style	custom step temp
run		40000
Step Temp
    5001    300.51206
    6000    299.17255
    7000    301.57071
    8000    300.08078
    9000    301.98035
   10000    299.03504
   11000    298.71151
   12000    299.98573
   13000    300.53935
   14000    301.59031
   15000    296.17253
   16000     300.2195
   17000    300.79823
   18000    299.78326
   19000    298.40272
   20000    302.86601
   21000    300.73577
   22000    298.30187
   23000    299.37456
   24000    298.34225
   25000    299.05936
   26000    299.36269
   27000    300.67156
   28000    298.95397
   29000    299.40097
   30000    299.67168
   31000    300.28473
   32000    300.18295
   33000    299.33847
   34000    300.60803
   35000    298.46328
   36000    300.09811
   37000    301.24933
   38000    300.37436
   39000    300.06133
   40000    299.95253
   41000     300.3072
   42000      298.737
   43000    299.50255
   44000    299.57263
   45000     299.3359
   45001    299.27623
Loop time of 1213.58 on 32 procs for 40000 steps with 193600 atoms

velocity	all scale $T
velocity	all scale 300
unfix		NVT

fix		NVE all nve
fix		hot all langevin 319.9225 319.9225 0.05 389516 tally yes
fix_modify	hot temp Thot
fix		cold all langevin 280.0775 280.0775 0.05 46579 tally yes
fix_modify	cold temp Tcold

thermo_style	custom step temp c_Thot c_Tcold f_hot f_cold
run		100000
Step Temp c_Thot c_Tcold f_hot f_cold
45001          300    297.19307     301.4081           -0           -0
Averages over the last 51 of 102 rows, steps 96000 to 145001:
Temp c_Thot c_Tcold f_hot f_cold
299.618 317.821 281.884 -3041.37 3069.17
Loop time of 3165.84 on 32 procs for 100000 steps with 193600 atoms

# thermal conductivity calculation
# reset langevin thermostats to zero energy accumulation
reset_timestep 0
thermo		$c
thermo		500000
compute		ke all ke/atom
variable	temp atom c_ke/1.5/8.617332478e-5
fix		hot all langevin 319.9225 319.9225 0.05 389516 tally yes
fix_modify	hot temp Thot
fix		cold all langevin 280.0775 280.0775 0.05 46579 tally yes
fix_modify	cold temp Tcold

compute		ch all chunk/atom bin/1d x lower 0.02 units reduced
fix		11 all ave/chunk 100 5000 500000 ch v_temp file sw_11.langevin
thermo_style	custom step temp c_Thot c_Tcold f_hot f_cold

run		500000
Step Temp c_Thot c_Tcold f_hot f_cold
0     299.9412    317.08334    282.72336           -0           -0
Loop time of 15751.9 on 32 procs for 500000 steps with 193600 atoms

clear
next		P
jump		Si.in
 units       metal
#----------------------------- User Input Variables --------------------------------------
################### Geometrical Parameters ###############################
variable	P index 9 10 11 12
variable	W equal 22
# Lattice Constant
variable	LC equal 5.43
# Length
variable	L equal 50
# Width
#variable	W equal 6
# Height
variable	H equal 22
################### Simulation Condition ###############################
#DT/DX=cte
variable	cte equal 1.5938
log         sw_12.log
