# temperature
variable	T equal 300
#cold region temperature
#variable        tlo equal 275
variable        tlo equal 300-50*1.5938/4.0
#hot region temperature
variable        thi equal 300+50*1.5938/4.0

#time step (picoseconds)
variable	dt equal 0.0005 # 0.5 femtoseconds
#number of time steps for NPT
variable	tnpt equal 5000
#number of time steps for NVT
variable	tnvt equal 40000
#number of time steps for first NVE
variable	t1nve equal 100000
#number of time steps for second NVE
variable	t2nve equal 500000

################### Variable Based on LAMMPS Documentation ######################
variable	a equal 100
variable	c equal 500000
variable	b equal $c/$a
variable	b equal 500000/$a
variable	b equal 500000/100
variable	tdamp equal 0.0005*100
variable	pdamp equal 0.0005*1000

#----------------------------------------------------------------------------------------
# setup problem
dimension       3
boundary        p p p
atom_style      atomic
lattice 	diamond 5.43 origin 0.0 0.0 0.0 orient x 1 0 0 orient y 0 1 0 orient z 0 0 1
Lattice spacing in x,y,z = 5.43 5.43 5.43
region          0 block 0 $L 0 $W 0 $H units lattice side in
region          0 block 0 50 0 $W 0 $H units lattice side in
region          0 block 0 50 0 22 0 $H units lattice side in
region          0 block 0 50 0 22 0 22 units lattice side in
create_box      1 0
Created orthogonal box = (0 0 0) to (271.5 119.46 119.46)
create_atoms    1 region 0
Created 193600 atoms
mass		1 28.0855
#dump_modify	1 element Si

############################################
pair_style   sw
pair_coeff   * * Si15.sw Si
thermo		100
thermo_style custom step lx
min_style cg
minimize 0.0 1.0e-8 10000 100000
  update every 1 steps, delay 0 steps, check yes
Step Lx
       0        271.5
       1        271.5
Loop time of 0.0451018 on 32 procs for 1 steps with 193600 atoms

Minimization stats:
  Stopping criterion = force tolerance
  Energy initial, next-to-last, final =
  Force two-norm initial, final = 7.77854e-11 7.77318e-11
  Force max component initial, final = 4.51004e-13 4.53568e-13
  Final line search alpha, max atom move = 1 4.53568e-13
  Iterations, force evaluations = 1 2

timestep     0.0005
velocity 	all create $T 492845
velocity 	all create 300 492845

fix 		NPT all npt temp 300 300 0.05 iso 0.0 0.0 0.5
thermo		100
thermo_style custom step lx press
run		5000
Step Lx Press
1        271.5   -13879.048
Averages over the last 26 of 52 rows, steps 2600 to 5001:
Lx Press
270.213 -0.448021
Loop time of 126.654 on 32 procs for 5000 steps with 193600 atoms

unfix		NPT
variable	length equal lx/5.43

################### Geometrical Parameters After Relaxation ###############################
# Thermostat_width
variable	TW equal 49.7626615312571/40
# Hot_Start
variable	hs equal 49.7626615312571/4-1.24406653828143
# Hot_End
variable	he equal 49.7626615312571/4+1.24406653828143
# Cold_Start
variable	cs equal 3*49.7626615312571/4-1.24406653828143
# Cold_End
variable	ce equal 3*49.7626615312571/4+1.24406653828143
###########################################################################################

################### Defining Thermostat ###################################################
region 		hot block 11.1965988445328 13.6847319210957 EDGE EDGE EDGE EDGE
region 		cold block 36.0779296101614 38.5660626867243 EDGE EDGE EDGE EDGE
group		test region cold
9569 atoms in group test
group		test1 region hot
9564 atoms in group test1
compute		Thot all temp/region hot
compute         Tcold all temp/region cold
###########################################################################################

fix		NVT all nvt temp 300 300 0.05
thermo		1000
thermo_style	custom step temp
run		40000
Step Temp
    5001    298.63997
    6000    299.33835
    7000    301.65214
    8000    299.96631
    9000    301.95303
   10000    299.69485
   11000    301.20543
   12000    299.88606
   13000    298.63634
   14000    299.38385
   15000    299.86548
   16000    301.00887
   17000    299.83768
   18000     298.4759
   19000    299.18469
   20000    298.53932
   21000    300.60885
   22000    300.23744
   23000    300.64244
   24000    301.02763
   25000    298.21358
   26000    300.17515
   27000    300.02767
   28000    299.81257
   29000    298.97932
   30000    299.17627
   31000    299.87377
   32000    300.62819
   33000    300.97255
   34000    298.79102
   35000     299.7115
   36000    299.91761
   37000    299.67666
   38000    300.39645
   39000    299.71626
   40000    300.37549
   41000    299.97317
   42000    300.11301
   43000    300.84304
   44000    299.69522
   45000    299.61238
   45001    299.63343
Loop time of 953.446 on 32 procs for 40000 steps with 193600 atoms

velocity	all scale $T
velocity	all scale 300
unfix		NVT

fix		NVE all nve
fix		hot all langevin 319.9225 319.9225 0.05 389516 tally yes
fix_modify	hot temp Thot
fix		cold all langevin 280.0775 280.0775 0.05 46579 tally yes
fix_modify	cold temp Tcold

thermo_style	custom step temp c_Thot c_Tcold f_hot f_cold
run		100000
Step Temp c_Thot c_Tcold f_hot f_cold
45001          300    301.86735    301.12025           -0           -0
Averages over the last 51 of 102 rows, steps 96000 to 145001:
Temp c_Thot c_Tcold f_hot f_cold
299.899 318.8 281.032 -1955.54 1969.42
Loop time of 2502.77 on 32 procs for 100000 steps with 193600 atoms

# thermal conductivity calculation
# reset langevin thermostats to zero energy accumulation
reset_timestep 0
thermo		$c
thermo		500000
compute		ke all ke/atom
variable	temp atom c_ke/1.5/8.617332478e-5
fix		hot all langevin 319.9225 319.9225 0.05 389516 tally yes
fix_modify	hot temp Thot
fix		cold all langevin 280.0775 280.0775 0.05 46579 tally yes
fix_modify	cold temp Tcold

compute		ch all chunk/atom bin/1d x lower 0.02 units reduced
fix		11 all ave/chunk 100 5000 500000 ch v_temp file sw_15.langevin
thermo_style	custom step temp c_Thot c_Tcold f_hot f_cold

run		500000
Step Temp c_Thot c_Tcold f_hot f_cold
0    299.41319    317.50772    281.86772           -0           -0
Loop time of 12375.5 on 32 procs for 500000 steps with 193600 atoms

clear
next		P
jump		Si.in
 units       metal
#----------------------------- User Input Variables --------------------------------------
################### Geometrical Parameters ###############################
variable	P index 13 14 15 16
variable	W equal 22
# Lattice Constant
variable	LC equal 5.43
# Length
variable	L equal 50
# Width
#variable	W equal 6
# Height
variable	H equal 22
################### Simulation Condition ###############################
#DT/DX=cte
variable	cte equal 1.5938
log         sw_16.log
