# temperature
variable	T equal 300
#cold region temperature
#variable        tlo equal 275
variable        tlo equal 300-50*1.5938/4.0
#hot region temperature
variable        thi equal 300+50*1.5938/4.0

#time step (picoseconds)
variable	dt equal 0.0005 # 0.5 femtoseconds
#number of time steps for NPT
variable	tnpt equal 5000
#number of time steps for NVT
variable	tnvt equal 40000
#number of time steps for first NVE
variable	t1nve equal 100000
#number of time steps for second NVE
variable	t2nve equal 500000

################### Variable Based on LAMMPS Documentation ######################
variable	a equal 100
variable	c equal 500000
variable	b equal $c/$a
variable	b equal 500000/$a
variable	b equal 500000/100
variable	tdamp equal 0.0005*100
variable	pdamp equal 0.0005*1000

#----------------------------------------------------------------------------------------
# setup problem
dimension       3
boundary        p p p
atom_style      atomic
lattice 	diamond 5.43 origin 0.0 0.0 0.0 orient x 1 0 0 orient y 0 1 0 orient z 0 0 1
Lattice spacing in x,y,z = 5.43 5.43 5.43
region          0 block 0 $L 0 $W 0 $H units lattice side in
region          0 block 0 50 0 $W 0 $H units lattice side in
region          0 block 0 50 0 22 0 $H units lattice side in
region          0 block 0 50 0 22 0 22 units lattice side in
create_box      1 0
Created orthogonal box = (0 0 0) to (271.5 119.46 119.46)
create_atoms    1 region 0
Created 193600 atoms
mass		1 28.0855
#dump_modify	1 element Si

############################################
pair_style   sw
pair_coeff   * * Si16.sw Si
thermo		100
thermo_style custom step lx
min_style cg
minimize 0.0 1.0e-8 10000 100000
  update every 1 steps, delay 0 steps, check yes
Step Lx
       0        271.5
       1        271.5
Loop time of 0.304565 on 32 procs for 1 steps with 193600 atoms

Minimization stats:
  Stopping criterion = force tolerance
  Energy initial, next-to-last, final =
  Force two-norm initial, final = 9.91427e-11 9.9075e-11
  Force max component initial, final = 5.76913e-13 5.79849e-13
  Final line search alpha, max atom move = 1 5.79849e-13
  Iterations, force evaluations = 1 2

timestep     0.0005
velocity 	all create $T 492845
velocity 	all create 300 492845

fix 		NPT all npt temp 300 300 0.05 iso 0.0 0.0 0.5
thermo		100
thermo_style custom step lx press
run		5000
Step Lx Press
1        271.5    48827.023
Averages over the last 26 of 52 rows, steps 2600 to 5001:
Lx Press
275.575 1.19765
Loop time of 230.281 on 32 procs for 5000 steps with 193600 atoms

unfix		NPT
variable	length equal lx/5.43

################### Geometrical Parameters After Relaxation ###############################
# Thermostat_width
variable	TW equal 50.749845984952/40
# Hot_Start
variable	hs equal 50.749845984952/4-1.2687461496238
# Hot_End
variable	he equal 50.749845984952/4+1.2687461496238
# Cold_Start
variable	cs equal 3*50.749845984952/4-1.2687461496238
# Cold_End
variable	ce equal 3*50.749845984952/4+1.2687461496238
###########################################################################################

################### Defining Thermostat ###################################################
region 		hot block 11.4187153466142 13.9562076458618 EDGE EDGE EDGE EDGE
region 		cold block 36.7936383390902 39.3311306383378 EDGE EDGE EDGE EDGE
group		test region cold
9588 atoms in group test
group		test1 region hot
9571 atoms in group test1
compute		Thot all temp/region hot
compute         Tcold all temp/region cold
###########################################################################################

fix		NVT all nvt temp 300 300 0.05
thermo		1000
thermo_style	custom step temp
run		40000
Step Temp
    5001    301.20651
    6000    302.04744
    7000    298.66438
    8000    299.91672
    9000    299.16678
   10000    299.48644
   11000    300.06244
   12000    299.75481
   13000    300.49202
   14000    300.12544
   15000    301.25369
   16000    298.13789
   17000    300.39264
   18000     299.6989
   19000    300.62355
   20000     301.0649
   21000    300.06446
   22000    301.50545
   23000    301.24911
   24000    298.59164
   25000    299.26808
   26000    299.58396
   27000    301.20984
   28000    300.31626
   29000    299.96299
   30000    299.91925
   31000    299.87176
   32000    301.38724
   33000     299.8189
   34000    298.95245
   35000     301.3138
   36000    300.01423
   37000    299.56675
   38000    300.08324
   39000    300.17419
   40000    301.01689
   41000    299.16751
   42000    300.66725
   43000    299.93924
   44000    300.44136
   45000    300.70286
   45001    300.65938
Loop time of 1819.38 on 32 procs for 40000 steps with 193600 atoms

velocity	all scale $T
velocity	all scale 300
unfix		NVT

fix		NVE all nve
fix		hot all langevin 319.9225 319.9225 0.05 389516 tally yes
fix_modify	hot temp Thot
fix		cold all langevin 280.0775 280.0775 0.05 46579 tally yes
fix_modify	cold temp Tcold

thermo_style	custom step temp c_Thot c_Tcold f_hot f_cold
run		100000
Step Temp c_Thot c_Tcold f_hot f_cold
45001          300     299.9793    300.49758           -0           -0
Averages over the last 51 of 102 rows, steps 96000 to 145001:
Temp c_Thot c_Tcold f_hot f_cold
299.94 318.9 281.432 -2377.04 2397.7
Loop time of 4679.55 on 32 procs for 100000 steps with 193600 atoms

# thermal conductivity calculation
# reset langevin thermostats to zero energy accumulation
reset_timestep 0
thermo		$c
thermo		500000
compute		ke all ke/atom
variable	temp atom c_ke/1.5/8.617332478e-5
fix		hot all langevin 319.9225 319.9225 0.05 389516 tally yes
fix_modify	hot temp Thot
fix		cold all langevin 280.0775 280.0775 0.05 46579 tally yes
fix_modify	cold temp Tcold

compute		ch all chunk/atom bin/1d x lower 0.02 units reduced
fix		11 all ave/chunk 100 5000 500000 ch v_temp file sw_16.langevin
thermo_style	custom step temp c_Thot c_Tcold f_hot f_cold

run		500000
Step Temp c_Thot c_Tcold f_hot f_cold
0    299.38099    317.71487    281.66056           -0           -0
Loop time of 23333.7 on 32 procs for 500000 steps with 193600 atoms

clear
next		P
jump		Si.in
