# temperature
variable	T equal 300
#cold region temperature
#variable        tlo equal 275
variable        tlo equal 300-50*1.5938/4.0
#hot region temperature
variable        thi equal 300+50*1.5938/4.0

#time step (picoseconds)
variable	dt equal 0.0005 # 0.5 femtoseconds
#number of time steps for NPT
variable	tnpt equal 5000
#number of time steps for NVT
variable	tnvt equal 40000
#number of time steps for first NVE
variable	t1nve equal 100000
#number of time steps for second NVE
variable	t2nve equal 500000

################### Variable Based on LAMMPS Documentation ######################
variable	a equal 100
variable	c equal 500000
variable	b equal $c/$a
variable	b equal 500000/$a
variable	b equal 500000/100
variable	tdamp equal 0.0005*100
variable	pdamp equal 0.0005*1000

#----------------------------------------------------------------------------------------
# setup problem
dimension       3
boundary        p p p
atom_style      atomic
lattice 	diamond 5.43 origin 0.0 0.0 0.0 orient x 1 0 0 orient y 0 1 0 orient z 0 0 1
Lattice spacing in x,y,z = 5.43 5.43 5.43
region          0 block 0 $L 0 $W 0 $H units lattice side in
region          0 block 0 50 0 $W 0 $H units lattice side in
region          0 block 0 50 0 22 0 $H units lattice side in
region          0 block 0 50 0 22 0 22 units lattice side in
create_box      1 0
Created orthogonal box = (0 0 0) to (271.5 119.46 119.46)
create_atoms    1 region 0
Created 193600 atoms
mass		1 28.0855
#dump_modify	1 element Si

############################################
pair_style   sw
pair_coeff   * * Si20.sw Si
thermo		100
thermo_style custom step lx
min_style cg
minimize 0.0 1.0e-8 10000 100000
  update every 1 steps, delay 0 steps, check yes
Step Lx
       0        271.5
       1        271.5
Loop time of 0.438737 on 32 procs for 1 steps with 193600 atoms

Minimization stats:
  Stopping criterion = force tolerance
  Energy initial, next-to-last, final =
  Force two-norm initial, final = 9.00945e-11 9.00309e-11
  Force max component initial, final = 5.25854e-13 5.27883e-13
  Final line search alpha, max atom move = 1 5.27883e-13
  Iterations, force evaluations = 1 2

timestep     0.0005
velocity 	all create $T 492845
velocity 	all create 300 492845

fix 		NPT all npt temp 300 300 0.05 iso 0.0 0.0 0.5
thermo		100
thermo_style custom step lx press
run		5000
Step Lx Press
1        271.5    39969.698
Averages over the last 26 of 52 rows, steps 2600 to 5001:
Lx Press
275.424 -1.66394
Loop time of 233.356 on 32 procs for 5000 steps with 193600 atoms

unfix		NPT
variable	length equal lx/5.43

################### Geometrical Parameters After Relaxation ###############################
# Thermostat_width
variable	TW equal 50.7235139894362/40
# Hot_Start
variable	hs equal 50.7235139894362/4-1.2680878497359
# Hot_End
variable	he equal 50.7235139894362/4+1.2680878497359
# Cold_Start
variable	cs equal 3*50.7235139894362/4-1.2680878497359
# Cold_End
variable	ce equal 3*50.7235139894362/4+1.2680878497359
###########################################################################################

################### Defining Thermostat ###################################################
region 		hot block 11.4127906476231 13.948966347095 EDGE EDGE EDGE EDGE
region 		cold block 36.7745476423413 39.3107233418131 EDGE EDGE EDGE EDGE
group		test region cold
9580 atoms in group test
group		test1 region hot
9579 atoms in group test1
compute		Thot all temp/region hot
compute         Tcold all temp/region cold
###########################################################################################

fix		NVT all nvt temp 300 300 0.05
thermo		1000
thermo_style	custom step temp
run		40000
Step Temp
    5001    301.59208
    6000    299.02647
    7000     300.1526
    8000    299.73969
    9000    299.57687
   10000    299.61688
   11000    299.17108
   12000    301.30299
   13000    297.68806
   14000    299.22009
   15000    299.15696
   16000    299.12692
   17000    299.43634
   18000    299.92195
   19000    299.64947
   20000    300.29887
   21000    299.57535
   22000    297.94982
   23000    300.58133
   24000    299.74972
   25000    299.60262
   26000    300.05058
   27000    300.72348
   28000    300.91534
   29000    300.44864
   30000    300.43241
   31000    301.06498
   32000     299.3869
   33000    300.25838
   34000    300.05152
   35000    300.33853
   36000    299.44194
   37000    300.16489
   38000    299.80817
   39000     299.4222
   40000    300.35673
   41000    301.10174
   42000    300.11528
   43000    299.71005
   44000    299.81932
   45000    300.17979
   45001    300.23596
Loop time of 1859.43 on 32 procs for 40000 steps with 193600 atoms

velocity	all scale $T
velocity	all scale 300
unfix		NVT

fix		NVE all nve
fix		hot all langevin 319.9225 319.9225 0.05 389516 tally yes
fix_modify	hot temp Thot
fix		cold all langevin 280.0775 280.0775 0.05 46579 tally yes
fix_modify	cold temp Tcold

thermo_style	custom step temp c_Thot c_Tcold f_hot f_cold
run		100000
Step Temp c_Thot c_Tcold f_hot f_cold
45001          300    301.67956    299.60201           -0           -0
Averages over the last 51 of 102 rows, steps 96000 to 145001:
Temp c_Thot c_Tcold f_hot f_cold
300.097 318.569 281.18 -2528.63 2512.84
Loop time of 4723.99 on 32 procs for 100000 steps with 193600 atoms

# thermal conductivity calculation
# reset langevin thermostats to zero energy accumulation
reset_timestep 0
thermo		$c
thermo		500000
compute		ke all ke/atom
variable	temp atom c_ke/1.5/8.617332478e-5
fix		hot all langevin 319.9225 319.9225 0.05 389516 tally yes
fix_modify	hot temp Thot
fix		cold all langevin 280.0775 280.0775 0.05 46579 tally yes
fix_modify	cold temp Tcold

compute		ch all chunk/atom bin/1d x lower 0.02 units reduced
fix		11 all ave/chunk 100 5000 500000 ch v_temp file sw_20.langevin
thermo_style	custom step temp c_Thot c_Tcold f_hot f_cold

run		500000
Step Temp c_Thot c_Tcold f_hot f_cold
0    300.19752    318.13346    283.37223           -0           -0
Loop time of 23720 on 32 procs for 500000 steps with 193600 atoms

clear
next		P
jump		Si.in
