# temperature
variable	T equal 300
#cold region temperature
#variable        tlo equal 275
variable        tlo equal 300-50*1.5938/4.0
#hot region temperature
variable        thi equal 300+50*1.5938/4.0

#time step (picoseconds)
variable	dt equal 0.0005 # 0.5 femtoseconds
#number of time steps for NPT
variable	tnpt equal 5000
#number of time steps for NVT
variable	tnvt equal 40000
#number of time steps for first NVE
variable	t1nve equal 100000
#number of time steps for second NVE
variable	t2nve equal 500000

################### Variable Based on LAMMPS Documentation ######################
variable	a equal 100
variable	c equal 500000
variable	b equal $c/$a
variable	b equal 500000/$a
variable	b equal 500000/100
variable	tdamp equal 0.0005*100
variable	pdamp equal 0.0005*1000

#----------------------------------------------------------------------------------------
# setup problem
dimension       3
boundary        p p p
atom_style      atomic
lattice 	diamond 5.43 origin 0.0 0.0 0.0 orient x 1 0 0 orient y 0 1 0 orient z 0 0 1
Lattice spacing in x,y,z = 5.43 5.43 5.43
region          0 block 0 $L 0 $W 0 $H units lattice side in
region          0 block 0 50 0 $W 0 $H units lattice side in
region          0 block 0 50 0 22 0 $H units lattice side in
region          0 block 0 50 0 22 0 22 units lattice side in
create_box      1 0
Created orthogonal box = (0 0 0) to (271.5 119.46 119.46)
create_atoms    1 region 0
Created 193600 atoms
mass		1 28.0855
#dump_modify	1 element Si

############################################
pair_style   sw
pair_coeff   * * Si24.sw Si
thermo		100
thermo_style custom step lx
min_style cg
minimize 0.0 1.0e-8 10000 100000
  update every 1 steps, delay 0 steps, check yes
Step Lx
       0        271.5
       1        271.5
Loop time of 0.0418567 on 32 procs for 1 steps with 193600 atoms

Minimization stats:
  Stopping criterion = force tolerance
  Energy initial, next-to-last, final =
  Force two-norm initial, final = 8.21201e-11 8.2064e-11
  Force max component initial, final = 4.77447e-13 4.80227e-13
  Final line search alpha, max atom move = 1 4.80227e-13
  Iterations, force evaluations = 1 2

timestep     0.0005
velocity 	all create $T 492845
velocity 	all create 300 492845

fix 		NPT all npt temp 300 300 0.05 iso 0.0 0.0 0.5
thermo		100
thermo_style custom step lx press
run		5000
Step Lx Press
1        271.5   -54141.743
Averages over the last 26 of 52 rows, steps 2600 to 5001:
Lx Press
266.587 -0.539162
Loop time of 88.1555 on 32 procs for 5000 steps with 193600 atoms

unfix		NPT
variable	length equal lx/5.43

################### Geometrical Parameters After Relaxation ###############################
# Thermostat_width
variable	TW equal 49.0951891281832/40
# Hot_Start
variable	hs equal 49.0951891281832/4-1.22737972820458
# Hot_End
variable	he equal 49.0951891281832/4+1.22737972820458
# Cold_Start
variable	cs equal 3*49.0951891281832/4-1.22737972820458
# Cold_End
variable	ce equal 3*49.0951891281832/4+1.22737972820458
###########################################################################################

################### Defining Thermostat ###################################################
region 		hot block 11.0464175538412 13.5011770102504 EDGE EDGE EDGE EDGE
region 		cold block 35.5940121179328 38.048771574342 EDGE EDGE EDGE EDGE
group		test region cold
9568 atoms in group test
group		test1 region hot
9569 atoms in group test1
compute		Thot all temp/region hot
compute         Tcold all temp/region cold
###########################################################################################

fix		NVT all nvt temp 300 300 0.05
thermo		1000
thermo_style	custom step temp
run		40000
Step Temp
    5001    300.36173
    6000    300.93853
    7000    298.53489
    8000    298.85814
    9000    301.02465
   10000    299.23721
   11000    299.67803
   12000    297.39407
   13000    300.27063
   14000    301.76925
   15000    301.15194
   16000    298.88626
   17000    300.67506
   18000     299.3107
   19000    300.80756
   20000    300.70066
   21000    299.19316
   22000    299.02721
   23000    300.88691
   24000    299.71975
   25000    299.61038
   26000    300.76548
   27000    300.18691
   28000    300.06437
   29000    299.14286
   30000    300.59995
   31000    299.55654
   32000    299.69457
   33000    300.70644
   34000    299.70649
   35000    300.33586
   36000    299.69442
   37000     299.7668
   38000    299.18809
   39000    300.84724
   40000    299.28325
   41000    300.07115
   42000    299.98403
   43000    301.17292
   44000    299.89058
   45000     299.7754
   45001    299.74454
Loop time of 626.791 on 32 procs for 40000 steps with 193600 atoms

velocity	all scale $T
velocity	all scale 300
unfix		NVT

fix		NVE all nve
fix		hot all langevin 319.9225 319.9225 0.05 389516 tally yes
fix_modify	hot temp Thot
fix		cold all langevin 280.0775 280.0775 0.05 46579 tally yes
fix_modify	cold temp Tcold

thermo_style	custom step temp c_Thot c_Tcold f_hot f_cold
run		100000
Step Temp c_Thot c_Tcold f_hot f_cold
45001          300    297.93715    299.38829           -0           -0
Averages over the last 51 of 102 rows, steps 96000 to 145001:
Temp c_Thot c_Tcold f_hot f_cold
300.083 318.332 281.053 -2420.94 2459.5
Loop time of 1679.83 on 32 procs for 100000 steps with 193600 atoms

# thermal conductivity calculation
# reset langevin thermostats to zero energy accumulation
reset_timestep 0
thermo		$c
thermo		500000
compute		ke all ke/atom
variable	temp atom c_ke/1.5/8.617332478e-5
fix		hot all langevin 319.9225 319.9225 0.05 389516 tally yes
fix_modify	hot temp Thot
fix		cold all langevin 280.0775 280.0775 0.05 46579 tally yes
fix_modify	cold temp Tcold

compute		ch all chunk/atom bin/1d x lower 0.02 units reduced
fix		11 all ave/chunk 100 5000 500000 ch v_temp file sw_24.langevin
thermo_style	custom step temp c_Thot c_Tcold f_hot f_cold

run		500000
Step Temp c_Thot c_Tcold f_hot f_cold
0    300.15477     316.0728    280.81062           -0           -0
Loop time of 8383.46 on 32 procs for 500000 steps with 193600 atoms

clear
next		P
jump		Si.in
