# temperature
variable	T equal 300
#cold region temperature
#variable        tlo equal 275
variable        tlo equal 300-50*1.5938/4.0
#hot region temperature
variable        thi equal 300+50*1.5938/4.0

#time step (picoseconds)
variable	dt equal 0.0005 # 0.5 femtoseconds
#number of time steps for NPT
variable	tnpt equal 5000
#number of time steps for NVT
variable	tnvt equal 40000
#number of time steps for first NVE
variable	t1nve equal 100000
#number of time steps for second NVE
variable	t2nve equal 500000

################### Variable Based on LAMMPS Documentation ######################
variable	a equal 100
variable	c equal 500000
variable	b equal $c/$a
variable	b equal 500000/$a
variable	b equal 500000/100
variable	tdamp equal 0.0005*100
variable	pdamp equal 0.0005*1000

#----------------------------------------------------------------------------------------
# setup problem
dimension       3
boundary        p p p
atom_style      atomic
lattice 	diamond 5.43 origin 0.0 0.0 0.0 orient x 1 0 0 orient y 0 1 0 orient z 0 0 1
Lattice spacing in x,y,z = 5.43 5.43 5.43
region          0 block 0 $L 0 $W 0 $H units lattice side in
region          0 block 0 50 0 $W 0 $H units lattice side in
region          0 block 0 50 0 22 0 $H units lattice side in
region          0 block 0 50 0 22 0 22 units lattice side in
create_box      1 0
Created orthogonal box = (0 0 0) to (271.5 119.46 119.46)
create_atoms    1 region 0
Created 193600 atoms
mass		1 28.0855
#dump_modify	1 element Si

############################################
pair_style   sw
pair_coeff   * * Si22.sw Si
thermo		100
thermo_style custom step lx
min_style cg
minimize 0.0 1.0e-8 10000 100000
  update every 1 steps, delay 0 steps, check yes
Step Lx
       0        271.5
       1        271.5
Loop time of 0.307104 on 32 procs for 1 steps with 193600 atoms

Minimization stats:
  Stopping criterion = force tolerance
  Energy initial, next-to-last, final =
  Force two-norm initial, final = 1.04727e-10 1.04653e-10
  Force max component initial, final = 6.09651e-13 6.11811e-13
  Final line search alpha, max atom move = 1 6.11811e-13
  Iterations, force evaluations = 1 2

timestep     0.0005
velocity 	all create $T 492845
velocity 	all create 300 492845

fix 		NPT all npt temp 300 300 0.05 iso 0.0 0.0 0.5
thermo		100
thermo_style custom step lx press
run		5000
Step Lx Press
1        271.5    81092.695
Averages over the last 26 of 52 rows, steps 2600 to 5001:
Lx Press
278.363 2.8035
Loop time of 373.624 on 32 procs for 5000 steps with 193600 atoms

unfix		NPT
variable	length equal lx/5.43

################### Geometrical Parameters After Relaxation ###############################
# Thermostat_width
variable	TW equal 51.264072527672/40
# Hot_Start
variable	hs equal 51.264072527672/4-1.2816018131918
# Hot_End
variable	he equal 51.264072527672/4+1.2816018131918
# Cold_Start
variable	cs equal 3*51.264072527672/4-1.2816018131918
# Cold_End
variable	ce equal 3*51.264072527672/4+1.2816018131918
###########################################################################################

################### Defining Thermostat ###################################################
region 		hot block 11.5344163187262 14.0976199451098 EDGE EDGE EDGE EDGE
region 		cold block 37.1664525825622 39.7296562089458 EDGE EDGE EDGE EDGE
group		test region cold
9584 atoms in group test
group		test1 region hot
9570 atoms in group test1
compute		Thot all temp/region hot
compute         Tcold all temp/region cold
###########################################################################################

fix		NVT all nvt temp 300 300 0.05
thermo		1000
thermo_style	custom step temp
run		40000
Step Temp
    5001    301.65108
    6000    302.42691
    7000    298.85612
    8000    302.60528
    9000    299.75992
   10000    299.21652
   11000     299.4469
   12000    300.91857
   13000    300.27052
   14000    299.26706
   15000    301.28298
   16000    300.59142
   17000    299.76399
   18000    299.17803
   19000    301.10966
   20000    300.26648
   21000    300.65168
   22000    299.38627
   23000    299.66792
   24000     300.2191
   25000    300.07012
   26000    300.08105
   27000    299.38342
   28000    299.99586
   29000    300.37848
   30000     299.9303
   31000    299.85492
   32000    299.27348
   33000    300.95507
   34000    300.07411
   35000    300.67789
   36000    300.28923
   37000    299.24146
   38000    299.66574
   39000    298.88163
   40000    299.98528
   41000    300.27973
   42000    300.64832
   43000    299.93699
   44000    299.49972
   45000    300.77144
   45001    300.79724
Loop time of 2873.35 on 32 procs for 40000 steps with 193600 atoms

velocity	all scale $T
velocity	all scale 300
unfix		NVT

fix		NVE all nve
fix		hot all langevin 319.9225 319.9225 0.05 389516 tally yes
fix_modify	hot temp Thot
fix		cold all langevin 280.0775 280.0775 0.05 46579 tally yes
fix_modify	cold temp Tcold

thermo_style	custom step temp c_Thot c_Tcold f_hot f_cold
run		100000
Step Temp c_Thot c_Tcold f_hot f_cold
45001          300    298.81791    301.67457           -0           -0
Averages over the last 51 of 102 rows, steps 96000 to 145001:
Temp c_Thot c_Tcold f_hot f_cold
300.26 318.548 281.82 -2596.72 2598.97
Loop time of 7318.59 on 32 procs for 100000 steps with 193600 atoms

# thermal conductivity calculation
# reset langevin thermostats to zero energy accumulation
reset_timestep 0
thermo		$c
thermo		500000
compute		ke all ke/atom
variable	temp atom c_ke/1.5/8.617332478e-5
fix		hot all langevin 319.9225 319.9225 0.05 389516 tally yes
fix_modify	hot temp Thot
fix		cold all langevin 280.0775 280.0775 0.05 46579 tally yes
fix_modify	cold temp Tcold

compute		ch all chunk/atom bin/1d x lower 0.02 units reduced
fix		11 all ave/chunk 100 5000 500000 ch v_temp file sw_22.langevin
thermo_style	custom step temp c_Thot c_Tcold f_hot f_cold

run		500000
Step Temp c_Thot c_Tcold f_hot f_cold
0    300.27926    315.63674    285.37689           -0           -0
Loop time of 36603 on 32 procs for 500000 steps with 193600 atoms

clear
next		P
jump		Si.in
 units       metal
#----------------------------- User Input Variables --------------------------------------
################### Geometrical Parameters ###############################
variable	P index 21 22 23 24
variable	W equal 22
# Lattice Constant
variable	LC equal 5.43
# Length
variable	L equal 50
# Width
#variable	W equal 6
# Height
variable	H equal 22
################### Simulation Condition ###############################
#DT/DX=cte
variable	cte equal 1.5938
log         sw_23.log
