# temperature
variable	T equal 300
#cold region temperature
#variable        tlo equal 275
variable        tlo equal 300-50*1.5938/4.0
#hot region temperature
variable        thi equal 300+50*1.5938/4.0

#time step (picoseconds)
variable	dt equal 0.0005 # 0.5 femtoseconds
#number of time steps for NPT
variable	tnpt equal 5000
#number of time steps for NVT
variable	tnvt equal 40000
#number of time steps for first NVE
variable	t1nve equal 100000
#number of time steps for second NVE
variable	t2nve equal 500000

################### Variable Based on LAMMPS Documentation ######################
variable	a equal 100
variable	c equal 500000
variable	b equal $c/$a
variable	b equal 500000/$a
variable	b equal 500000/100
variable	tdamp equal 0.0005*100
variable	pdamp equal 0.0005*1000

#----------------------------------------------------------------------------------------
# setup problem
dimension       3
boundary        p p p
atom_style      atomic
lattice 	diamond 5.43 origin 0.0 0.0 0.0 orient x 1 0 0 orient y 0 1 0 orient z 0 0 1
Lattice spacing in x,y,z = 5.43 5.43 5.43
region          0 block 0 $L 0 $W 0 $H units lattice side in
region          0 block 0 50 0 $W 0 $H units lattice side in
region          0 block 0 50 0 22 0 $H units lattice side in
region          0 block 0 50 0 22 0 22 units lattice side in
create_box      1 0
Created orthogonal box = (0 0 0) to (271.5 119.46 119.46)
create_atoms    1 region 0
Created 193600 atoms
mass		1 28.0855
#dump_modify	1 element Si

############################################
pair_style   sw
pair_coeff   * * Si28.sw Si
thermo		100
thermo_style custom step lx
min_style cg
minimize 0.0 1.0e-8 10000 100000
  update every 1 steps, delay 0 steps, check yes
Step Lx
       0        271.5
       1        271.5
Loop time of 0.306867 on 32 procs for 1 steps with 193600 atoms

Minimization stats:
  Stopping criterion = force tolerance
  Energy initial, next-to-last, final =
  Force two-norm initial, final = 1.0435e-10 1.04316e-10
  Force max component initial, final = 5.86808e-13 5.92609e-13
  Final line search alpha, max atom move = 1 5.92609e-13
  Iterations, force evaluations = 1 2

timestep     0.0005
velocity 	all create $T 492845
velocity 	all create 300 492845

fix 		NPT all npt temp 300 300 0.05 iso 0.0 0.0 0.5
thermo		100
thermo_style custom step lx press
run		5000
Step Lx Press
1        271.5    72869.089
Averages over the last 26 of 52 rows, steps 2600 to 5001:
Lx Press
283.609 6.01364
Loop time of 508.154 on 32 procs for 5000 steps with 193600 atoms

unfix		NPT
variable	length equal lx/5.43

################### Geometrical Parameters After Relaxation ###############################
# Thermostat_width
variable	TW equal 52.229201268713/40
# Hot_Start
variable	hs equal 52.229201268713/4-1.30573003171782
# Hot_End
variable	he equal 52.229201268713/4+1.30573003171782
# Cold_Start
variable	cs equal 3*52.229201268713/4-1.30573003171782
# Cold_End
variable	ce equal 3*52.229201268713/4+1.30573003171782
###########################################################################################

################### Defining Thermostat ###################################################
region 		hot block 11.7515702854604 14.3630303488961 EDGE EDGE EDGE EDGE
region 		cold block 37.8661709198169 40.4776309832526 EDGE EDGE EDGE EDGE
group		test region cold
9587 atoms in group test
group		test1 region hot
9567 atoms in group test1
compute		Thot all temp/region hot
compute         Tcold all temp/region cold
###########################################################################################

fix		NVT all nvt temp 300 300 0.05
thermo		1000
thermo_style	custom step temp
run		40000
Step Temp
    5001    300.82997
    6000    298.47295
    7000     299.7271
    8000    301.01725
    9000    298.50509
   10000    298.74965
   11000    300.87447
   12000    300.46217
   13000    300.54179
   14000    299.21515
   15000    299.66243
   16000    300.21612
   17000    300.48191
   18000    300.55135
   19000    300.03549
   20000    299.25137
   21000     299.3719
   22000    299.53014
   23000    301.79581
   24000    299.25202
   25000    300.00897
   26000    299.60313
   27000      300.749
   28000    299.43577
   29000    299.99264
   30000    299.80633
   31000    300.22201
   32000    300.74766
   33000      299.703
   34000    300.05772
   35000    300.40314
   36000    299.86572
   37000    300.27693
   38000    299.63837
   39000    300.52054
   40000    299.18443
   41000    299.88694
   42000    300.37436
   43000    300.14037
   44000    299.31957
   45000    298.82354
   45001    298.82831
Loop time of 4004.31 on 32 procs for 40000 steps with 193600 atoms

velocity	all scale $T
velocity	all scale 300
unfix		NVT

fix		NVE all nve
fix		hot all langevin 319.9225 319.9225 0.05 389516 tally yes
fix_modify	hot temp Thot
fix		cold all langevin 280.0775 280.0775 0.05 46579 tally yes
fix_modify	cold temp Tcold

thermo_style	custom step temp c_Thot c_Tcold f_hot f_cold
run		100000
Step Temp c_Thot c_Tcold f_hot f_cold
45001          300    303.02754    299.46214           -0           -0
Averages over the last 51 of 102 rows, steps 96000 to 145001:
Temp c_Thot c_Tcold f_hot f_cold
299.934 318.623 281.171 -2982.99 3020.7
Loop time of 10096.6 on 32 procs for 100000 steps with 193600 atoms

# thermal conductivity calculation
# reset langevin thermostats to zero energy accumulation
reset_timestep 0
thermo		$c
thermo		500000
compute		ke all ke/atom
variable	temp atom c_ke/1.5/8.617332478e-5
fix		hot all langevin 319.9225 319.9225 0.05 389516 tally yes
fix_modify	hot temp Thot
fix		cold all langevin 280.0775 280.0775 0.05 46579 tally yes
fix_modify	cold temp Tcold

compute		ch all chunk/atom bin/1d x lower 0.02 units reduced
fix		11 all ave/chunk 100 5000 500000 ch v_temp file sw_28.langevin
thermo_style	custom step temp c_Thot c_Tcold f_hot f_cold

run		500000
Step Temp c_Thot c_Tcold f_hot f_cold
0    300.06123    317.31817    278.16815           -0           -0
Loop time of 50512.8 on 32 procs for 500000 steps with 193600 atoms

clear
next		P
jump		Si.in
