# temperature
variable	T equal 300
#cold region temperature
#variable        tlo equal 275
variable        tlo equal 300-50*1.5938/4.0
#hot region temperature
variable        thi equal 300+50*1.5938/4.0

#time step (picoseconds)
variable	dt equal 0.0005 # 0.5 femtoseconds
#number of time steps for NPT
variable	tnpt equal 5000
#number of time steps for NVT
variable	tnvt equal 40000
#number of time steps for first NVE
variable	t1nve equal 100000
#number of time steps for second NVE
variable	t2nve equal 500000

################### Variable Based on LAMMPS Documentation ######################
variable	a equal 100
variable	c equal 500000
variable	b equal $c/$a
variable	b equal 500000/$a
variable	b equal 500000/100
variable	tdamp equal 0.0005*100
variable	pdamp equal 0.0005*1000

#----------------------------------------------------------------------------------------
# setup problem
dimension       3
boundary        p p p
atom_style      atomic
lattice 	diamond 5.43 origin 0.0 0.0 0.0 orient x 1 0 0 orient y 0 1 0 orient z 0 0 1
Lattice spacing in x,y,z = 5.43 5.43 5.43
region          0 block 0 $L 0 $W 0 $H units lattice side in
region          0 block 0 50 0 $W 0 $H units lattice side in
region          0 block 0 50 0 22 0 $H units lattice side in
region          0 block 0 50 0 22 0 22 units lattice side in
create_box      1 0
Created orthogonal box = (0 0 0) to (271.5 119.46 119.46)
create_atoms    1 region 0
Created 193600 atoms
mass		1 28.0855
#dump_modify	1 element Si

############################################
pair_style   sw
pair_coeff   * * Si39.sw Si
thermo		100
thermo_style custom step lx
min_style cg
minimize 0.0 1.0e-8 10000 100000
  update every 1 steps, delay 0 steps, check yes
Step Lx
       0        271.5
       1        271.5
Loop time of 0.0510503 on 32 procs for 1 steps with 193600 atoms

Minimization stats:
  Stopping criterion = force tolerance
  Energy initial, next-to-last, final =
  Force two-norm initial, final = 1.0053e-10 1.00458e-10
  Force max component initial, final = 5.86488e-13 5.88786e-13
  Final line search alpha, max atom move = 1 5.88786e-13
  Iterations, force evaluations = 1 2

timestep     0.0005
velocity 	all create $T 492845
velocity 	all create 300 492845

fix 		NPT all npt temp 300 300 0.05 iso 0.0 0.0 0.5
thermo		100
thermo_style custom step lx press
run		5000
Step Lx Press
1        271.5   -11401.069
Averages over the last 26 of 52 rows, steps 2600 to 5001:
Lx Press
270.694 2.67412
Loop time of 96.7958 on 32 procs for 5000 steps with 193600 atoms

unfix		NPT
variable	length equal lx/5.43

################### Geometrical Parameters After Relaxation ###############################
# Thermostat_width
variable	TW equal 49.8507800280973/40
# Hot_Start
variable	hs equal 49.8507800280973/4-1.24626950070243
# Hot_End
variable	he equal 49.8507800280973/4+1.24626950070243
# Cold_Start
variable	cs equal 3*49.8507800280973/4-1.24626950070243
# Cold_End
variable	ce equal 3*49.8507800280973/4+1.24626950070243
###########################################################################################

################### Defining Thermostat ###################################################
region 		hot block 11.2164255063219 13.7089645077268 EDGE EDGE EDGE EDGE
region 		cold block 36.1418155203705 38.6343545217754 EDGE EDGE EDGE EDGE
group		test region cold
9568 atoms in group test
group		test1 region hot
9565 atoms in group test1
compute		Thot all temp/region hot
compute         Tcold all temp/region cold
###########################################################################################

fix		NVT all nvt temp 300 300 0.05
thermo		1000
thermo_style	custom step temp
run		40000
Step Temp
    5001    299.34638
    6000    299.63648
    7000    300.38491
    8000    300.35118
    9000    302.14483
   10000    300.85947
   11000    299.28274
   12000    300.21073
   13000    300.14046
   14000    297.12798
   15000    302.52594
   16000    301.67811
   17000    299.64095
   18000     299.5058
   19000    301.14337
   20000    300.48786
   21000    299.96428
   22000    300.00826
   23000    300.01316
   24000    300.40894
   25000    299.39404
   26000    298.88047
   27000    299.60634
   28000    300.53028
   29000    299.11462
   30000    300.93539
   31000    300.19659
   32000    300.24144
   33000    297.90402
   34000    301.32098
   35000    300.80777
   36000    298.96775
   37000    301.38577
   38000    298.50071
   39000    301.04945
   40000    300.04958
   41000    301.22223
   42000    300.48231
   43000    300.63191
   44000    298.43881
   45000    299.28262
   45001    299.34532
Loop time of 790.248 on 32 procs for 40000 steps with 193600 atoms

velocity	all scale $T
velocity	all scale 300
unfix		NVT

fix		NVE all nve
fix		hot all langevin 319.9225 319.9225 0.05 389516 tally yes
fix_modify	hot temp Thot
fix		cold all langevin 280.0775 280.0775 0.05 46579 tally yes
fix_modify	cold temp Tcold

thermo_style	custom step temp c_Thot c_Tcold f_hot f_cold
run		100000
Step Temp c_Thot c_Tcold f_hot f_cold
45001          300    299.44174    300.18886           -0           -0
Averages over the last 51 of 102 rows, steps 96000 to 145001:
Temp c_Thot c_Tcold f_hot f_cold
299.905 318.507 281.362 -2892.7 2894.4
Loop time of 2089.69 on 32 procs for 100000 steps with 193600 atoms

# thermal conductivity calculation
# reset langevin thermostats to zero energy accumulation
reset_timestep 0
thermo		$c
thermo		500000
compute		ke all ke/atom
variable	temp atom c_ke/1.5/8.617332478e-5
fix		hot all langevin 319.9225 319.9225 0.05 389516 tally yes
fix_modify	hot temp Thot
fix		cold all langevin 280.0775 280.0775 0.05 46579 tally yes
fix_modify	cold temp Tcold

compute		ch all chunk/atom bin/1d x lower 0.02 units reduced
fix		11 all ave/chunk 100 5000 500000 ch v_temp file sw_39.langevin
thermo_style	custom step temp c_Thot c_Tcold f_hot f_cold

run		500000
Step Temp c_Thot c_Tcold f_hot f_cold
0      300.345     315.6042    282.99699           -0           -0
Loop time of 10433.8 on 32 procs for 500000 steps with 193600 atoms

clear
next		P
jump		Si.in
 units       metal
#----------------------------- User Input Variables --------------------------------------
################### Geometrical Parameters ###############################
variable	P index 37 38 39 40
variable	W equal 22
# Lattice Constant
variable	LC equal 5.43
# Length
variable	L equal 50
# Width
#variable	W equal 6
# Height
variable	H equal 22
################### Simulation Condition ###############################
#DT/DX=cte
variable	cte equal 1.5938
log         sw_40.log
