# temperature
variable	T equal 300
#cold region temperature
#variable        tlo equal 275
variable        tlo equal 300-50*1.5938/4.0
#hot region temperature
variable        thi equal 300+50*1.5938/4.0

#time step (picoseconds)
variable	dt equal 0.0005 # 0.5 femtoseconds
#number of time steps for NPT
variable	tnpt equal 5000
#number of time steps for NVT
variable	tnvt equal 40000
#number of time steps for first NVE
variable	t1nve equal 100000
#number of time steps for second NVE
variable	t2nve equal 500000

################### Variable Based on LAMMPS Documentation ######################
variable	a equal 100
variable	c equal 500000
variable	b equal $c/$a
variable	b equal 500000/$a
variable	b equal 500000/100
variable	tdamp equal 0.0005*100
variable	pdamp equal 0.0005*1000

#----------------------------------------------------------------------------------------
# setup problem
dimension       3
boundary        p p p
atom_style      atomic
lattice 	diamond 5.43 origin 0.0 0.0 0.0 orient x 1 0 0 orient y 0 1 0 orient z 0 0 1
Lattice spacing in x,y,z = 5.43 5.43 5.43
region          0 block 0 $L 0 $W 0 $H units lattice side in
region          0 block 0 50 0 $W 0 $H units lattice side in
region          0 block 0 50 0 22 0 $H units lattice side in
region          0 block 0 50 0 22 0 22 units lattice side in
create_box      1 0
Created orthogonal box = (0 0 0) to (271.5 119.46 119.46)
create_atoms    1 region 0
Created 193600 atoms
mass		1 28.0855
#dump_modify	1 element Si

############################################
pair_style   sw
pair_coeff   * * Si31.sw Si
thermo		100
thermo_style custom step lx
min_style cg
minimize 0.0 1.0e-8 10000 100000
  update every 1 steps, delay 0 steps, check yes
Step Lx
       0        271.5
       1        271.5
Loop time of 0.0388025 on 32 procs for 1 steps with 193600 atoms

Minimization stats:
  Stopping criterion = force tolerance
  Energy initial, next-to-last, final =
  Force two-norm initial, final = 7.01429e-11 7.00968e-11
  Force max component initial, final = 4.05977e-13 4.07119e-13
  Final line search alpha, max atom move = 1 4.07119e-13
  Iterations, force evaluations = 1 2

timestep     0.0005
velocity 	all create $T 492845
velocity 	all create 300 492845

fix 		NPT all npt temp 300 300 0.05 iso 0.0 0.0 0.5
thermo		100
thermo_style custom step lx press
run		5000
Step Lx Press
1        271.5   -137866.91
Averages over the last 26 of 52 rows, steps 2600 to 5001:
Lx Press
258.701 1.66795
Loop time of 72.3713 on 32 procs for 5000 steps with 193600 atoms

unfix		NPT
variable	length equal lx/5.43

################### Geometrical Parameters After Relaxation ###############################
# Thermostat_width
variable	TW equal 47.6422608662783/40
# Hot_Start
variable	hs equal 47.6422608662783/4-1.19105652165696
# Hot_End
variable	he equal 47.6422608662783/4+1.19105652165696
# Cold_Start
variable	cs equal 3*47.6422608662783/4-1.19105652165696
# Cold_End
variable	ce equal 3*47.6422608662783/4+1.19105652165696
###########################################################################################

################### Defining Thermostat ###################################################
region 		hot block 10.7195086949126 13.1016217382265 EDGE EDGE EDGE EDGE
region 		cold block 34.5406391280518 36.9227521713657 EDGE EDGE EDGE EDGE
group		test region cold
9589 atoms in group test
group		test1 region hot
9577 atoms in group test1
compute		Thot all temp/region hot
compute         Tcold all temp/region cold
###########################################################################################

fix		NVT all nvt temp 300 300 0.05
thermo		1000
thermo_style	custom step temp
run		40000
Step Temp
    5001    300.84316
    6000    297.74188
    7000    299.44922
    8000    301.30053
    9000    299.17589
   10000    300.22032
   11000    297.79679
   12000     298.9526
   13000    298.83506
   14000    300.99367
   15000    299.58567
   16000    300.38546
   17000    299.88239
   18000    300.76969
   19000    300.79811
   20000    299.72047
   21000    300.35084
   22000    300.41241
   23000    299.30397
   24000    298.43612
   25000    299.87738
   26000    300.00251
   27000    299.14026
   28000    299.26633
   29000    300.16431
   30000    300.07068
   31000    299.36784
   32000    300.23815
   33000    300.34506
   34000    299.86793
   35000    300.04182
   36000     301.1956
   37000    299.78699
   38000    300.18217
   39000    298.98052
   40000     300.1618
   41000    300.51417
   42000    301.05294
   43000    299.91788
   44000    300.10707
   45000    299.33491
   45001    299.32155
Loop time of 552.629 on 32 procs for 40000 steps with 193600 atoms

velocity	all scale $T
velocity	all scale 300
unfix		NVT

fix		NVE all nve
fix		hot all langevin 319.9225 319.9225 0.05 389516 tally yes
fix_modify	hot temp Thot
fix		cold all langevin 280.0775 280.0775 0.05 46579 tally yes
fix_modify	cold temp Tcold

thermo_style	custom step temp c_Thot c_Tcold f_hot f_cold
run		100000
Step Temp c_Thot c_Tcold f_hot f_cold
45001          300    297.36082    300.93204           -0           -0
Averages over the last 51 of 102 rows, steps 96000 to 145001:
Temp c_Thot c_Tcold f_hot f_cold
299.77 318.311 281.238 -2155.75 2198.05
Loop time of 1521.39 on 32 procs for 100000 steps with 193600 atoms

# thermal conductivity calculation
# reset langevin thermostats to zero energy accumulation
reset_timestep 0
thermo		$c
thermo		500000
compute		ke all ke/atom
variable	temp atom c_ke/1.5/8.617332478e-5
fix		hot all langevin 319.9225 319.9225 0.05 389516 tally yes
fix_modify	hot temp Thot
fix		cold all langevin 280.0775 280.0775 0.05 46579 tally yes
fix_modify	cold temp Tcold

compute		ch all chunk/atom bin/1d x lower 0.02 units reduced
fix		11 all ave/chunk 100 5000 500000 ch v_temp file sw_31.langevin
thermo_style	custom step temp c_Thot c_Tcold f_hot f_cold

run		500000
Step Temp c_Thot c_Tcold f_hot f_cold
0    298.98551    313.94128    276.59187           -0           -0
Loop time of 7681.71 on 32 procs for 500000 steps with 193600 atoms

clear
next		P
jump		Si.in
 units       metal
#----------------------------- User Input Variables --------------------------------------
################### Geometrical Parameters ###############################
variable	P index 29 30 31 32
variable	W equal 22
# Lattice Constant
variable	LC equal 5.43
# Length
variable	L equal 50
# Width
#variable	W equal 6
# Height
variable	H equal 22
################### Simulation Condition ###############################
#DT/DX=cte
variable	cte equal 1.5938
log         sw_32.log
