# temperature
variable	T equal 300
#cold region temperature
#variable        tlo equal 275
variable        tlo equal 300-50*1.5938/4.0
#hot region temperature
variable        thi equal 300+50*1.5938/4.0

#time step (picoseconds)
variable	dt equal 0.0005 # 0.5 femtoseconds
#number of time steps for NPT
variable	tnpt equal 5000
#number of time steps for NVT
variable	tnvt equal 40000
#number of time steps for first NVE
variable	t1nve equal 100000
#number of time steps for second NVE
variable	t2nve equal 500000

################### Variable Based on LAMMPS Documentation ######################
variable	a equal 100
variable	c equal 500000
variable	b equal $c/$a
variable	b equal 500000/$a
variable	b equal 500000/100
variable	tdamp equal 0.0005*100
variable	pdamp equal 0.0005*1000

#----------------------------------------------------------------------------------------
# setup problem
dimension       3
boundary        p p p
atom_style      atomic
lattice 	diamond 5.43 origin 0.0 0.0 0.0 orient x 1 0 0 orient y 0 1 0 orient z 0 0 1
Lattice spacing in x,y,z = 5.43 5.43 5.43
region          0 block 0 $L 0 $W 0 $H units lattice side in
region          0 block 0 50 0 $W 0 $H units lattice side in
region          0 block 0 50 0 22 0 $H units lattice side in
region          0 block 0 50 0 22 0 22 units lattice side in
create_box      1 0
Created orthogonal box = (0 0 0) to (271.5 119.46 119.46)
create_atoms    1 region 0
Created 193600 atoms
mass		1 28.0855
#dump_modify	1 element Si

############################################
pair_style   sw
pair_coeff   * * Si35.sw Si
thermo		100
thermo_style custom step lx
min_style cg
minimize 0.0 1.0e-8 10000 100000
  update every 1 steps, delay 0 steps, check yes
Step Lx
       0        271.5
       1        271.5
Loop time of 0.0409681 on 32 procs for 1 steps with 193600 atoms

Minimization stats:
  Stopping criterion = force tolerance
  Energy initial, next-to-last, final =
  Force two-norm initial, final = 6.93095e-11 6.92633e-11
  Force max component initial, final = 4.02752e-13 4.04662e-13
  Final line search alpha, max atom move = 1 4.04662e-13
  Iterations, force evaluations = 1 2

timestep     0.0005
velocity 	all create $T 492845
velocity 	all create 300 492845

fix 		NPT all npt temp 300 300 0.05 iso 0.0 0.0 0.5
thermo		100
thermo_style custom step lx press
run		5000
Step Lx Press
1        271.5   -82634.879
Averages over the last 26 of 52 rows, steps 2600 to 5001:
Lx Press
263.141 0.858328
Loop time of 76.9443 on 32 procs for 5000 steps with 193600 atoms

unfix		NPT
variable	length equal lx/5.43

################### Geometrical Parameters After Relaxation ###############################
# Thermostat_width
variable	TW equal 48.4602695234931/40
# Hot_Start
variable	hs equal 48.4602695234931/4-1.21150673808733
# Hot_End
variable	he equal 48.4602695234931/4+1.21150673808733
# Cold_Start
variable	cs equal 3*48.4602695234931/4-1.21150673808733
# Cold_End
variable	ce equal 3*48.4602695234931/4+1.21150673808733
###########################################################################################

################### Defining Thermostat ###################################################
region 		hot block 10.9035606427859 13.3265741189606 EDGE EDGE EDGE EDGE
region 		cold block 35.1336954045325 37.5567088807072 EDGE EDGE EDGE EDGE
group		test region cold
9564 atoms in group test
group		test1 region hot
9555 atoms in group test1
compute		Thot all temp/region hot
compute         Tcold all temp/region cold
###########################################################################################

fix		NVT all nvt temp 300 300 0.05
thermo		1000
thermo_style	custom step temp
run		40000
Step Temp
    5001    299.73015
    6000    299.82667
    7000    299.13469
    8000    297.66405
    9000    302.29478
   10000    301.30811
   11000    299.46271
   12000    300.69311
   13000    299.47669
   14000    301.51652
   15000    300.30972
   16000    298.81898
   17000    298.99741
   18000    299.29847
   19000    299.47528
   20000    299.78192
   21000    299.28164
   22000    300.98518
   23000    299.09732
   24000    299.89181
   25000    300.84133
   26000    299.61586
   27000    299.24179
   28000    300.30099
   29000    299.70942
   30000    299.97467
   31000    299.89626
   32000    299.34329
   33000    299.41464
   34000    298.89559
   35000    301.14765
   36000    298.87165
   37000    300.72757
   38000    299.59133
   39000    301.66011
   40000    301.32471
   41000    298.57666
   42000    298.47815
   43000    299.11464
   44000    300.06216
   45000    300.29073
   45001    300.22614
Loop time of 600.389 on 32 procs for 40000 steps with 193600 atoms

velocity	all scale $T
velocity	all scale 300
unfix		NVT

fix		NVE all nve
fix		hot all langevin 319.9225 319.9225 0.05 389516 tally yes
fix_modify	hot temp Thot
fix		cold all langevin 280.0775 280.0775 0.05 46579 tally yes
fix_modify	cold temp Tcold

thermo_style	custom step temp c_Thot c_Tcold f_hot f_cold
run		100000
Step Temp c_Thot c_Tcold f_hot f_cold
45001          300    298.83782    298.46011           -0           -0
Averages over the last 51 of 102 rows, steps 96000 to 145001:
Temp c_Thot c_Tcold f_hot f_cold
300.061 318.709 281.332 -2154.7 2147.24
Loop time of 1639.51 on 32 procs for 100000 steps with 193600 atoms

# thermal conductivity calculation
# reset langevin thermostats to zero energy accumulation
reset_timestep 0
thermo		$c
thermo		500000
compute		ke all ke/atom
variable	temp atom c_ke/1.5/8.617332478e-5
fix		hot all langevin 319.9225 319.9225 0.05 389516 tally yes
fix_modify	hot temp Thot
fix		cold all langevin 280.0775 280.0775 0.05 46579 tally yes
fix_modify	cold temp Tcold

compute		ch all chunk/atom bin/1d x lower 0.02 units reduced
fix		11 all ave/chunk 100 5000 500000 ch v_temp file sw_35.langevin
thermo_style	custom step temp c_Thot c_Tcold f_hot f_cold

run		500000
Step Temp c_Thot c_Tcold f_hot f_cold
0    299.60774    321.08497     281.4208           -0           -0
Loop time of 8229.91 on 32 procs for 500000 steps with 193600 atoms

clear
next		P
jump		Si.in
 units       metal
#----------------------------- User Input Variables --------------------------------------
################### Geometrical Parameters ###############################
variable	P index 33 34 35 36
variable	W equal 22
# Lattice Constant
variable	LC equal 5.43
# Length
variable	L equal 50
# Width
#variable	W equal 6
# Height
variable	H equal 22
################### Simulation Condition ###############################
#DT/DX=cte
variable	cte equal 1.5938
log         sw_36.log
