# temperature
variable	T equal 300
#cold region temperature
#variable        tlo equal 275
variable        tlo equal 300-50*1.5938/4.0
#hot region temperature
variable        thi equal 300+50*1.5938/4.0

#time step (picoseconds)
variable	dt equal 0.0005 # 0.5 femtoseconds
#number of time steps for NPT
variable	tnpt equal 5000
#number of time steps for NVT
variable	tnvt equal 40000
#number of time steps for first NVE
variable	t1nve equal 100000
#number of time steps for second NVE
variable	t2nve equal 500000

################### Variable Based on LAMMPS Documentation ######################
variable	a equal 100
variable	c equal 500000
variable	b equal $c/$a
variable	b equal 500000/$a
variable	b equal 500000/100
variable	tdamp equal 0.0005*100
variable	pdamp equal 0.0005*1000

#----------------------------------------------------------------------------------------
# setup problem
dimension       3
boundary        p p p
atom_style      atomic
lattice 	diamond 5.43 origin 0.0 0.0 0.0 orient x 1 0 0 orient y 0 1 0 orient z 0 0 1
Lattice spacing in x,y,z = 5.43 5.43 5.43
region          0 block 0 $L 0 $W 0 $H units lattice side in
region          0 block 0 50 0 $W 0 $H units lattice side in
region          0 block 0 50 0 22 0 $H units lattice side in
region          0 block 0 50 0 22 0 22 units lattice side in
create_box      1 0
Created orthogonal box = (0 0 0) to (271.5 119.46 119.46)
create_atoms    1 region 0
Created 193600 atoms
mass		1 28.0855
#dump_modify	1 element Si

############################################
pair_style   sw
pair_coeff   * * Si32.sw Si
thermo		100
thermo_style custom step lx
min_style cg
minimize 0.0 1.0e-8 10000 100000
  update every 1 steps, delay 0 steps, check yes
Step Lx
       0        271.5
       1        271.5
Loop time of 0.0410452 on 32 procs for 1 steps with 193600 atoms

Minimization stats:
  Stopping criterion = force tolerance
  Energy initial, next-to-last, final =
  Force two-norm initial, final = 7.31151e-11 7.30672e-11
  Force max component initial, final = 4.22629e-13 4.25104e-13
  Final line search alpha, max atom move = 1 4.25104e-13
  Iterations, force evaluations = 1 2

timestep     0.0005
velocity 	all create $T 492845
velocity 	all create 300 492845

fix 		NPT all npt temp 300 300 0.05 iso 0.0 0.0 0.5
thermo		100
thermo_style custom step lx press
run		5000
Step Lx Press
1        271.5   -101324.86
Averages over the last 26 of 52 rows, steps 2600 to 5001:
Lx Press
262.33 3.44118
Loop time of 79.2369 on 32 procs for 5000 steps with 193600 atoms

unfix		NPT
variable	length equal lx/5.43

################### Geometrical Parameters After Relaxation ###############################
# Thermostat_width
variable	TW equal 48.3125933378947/40
# Hot_Start
variable	hs equal 48.3125933378947/4-1.20781483344737
# Hot_End
variable	he equal 48.3125933378947/4+1.20781483344737
# Cold_Start
variable	cs equal 3*48.3125933378947/4-1.20781483344737
# Cold_End
variable	ce equal 3*48.3125933378947/4+1.20781483344737
###########################################################################################

################### Defining Thermostat ###################################################
region 		hot block 10.8703335010263 13.285963167921 EDGE EDGE EDGE EDGE
region 		cold block 35.0266301699737 37.4422598368684 EDGE EDGE EDGE EDGE
group		test region cold
9565 atoms in group test
group		test1 region hot
9572 atoms in group test1
compute		Thot all temp/region hot
compute         Tcold all temp/region cold
###########################################################################################

fix		NVT all nvt temp 300 300 0.05
thermo		1000
thermo_style	custom step temp
run		40000
Step Temp
    5001    305.22876
    6000    298.67445
    7000    300.43902
    8000    299.77497
    9000    301.26105
   10000    299.70332
   11000    300.67247
   12000    299.16389
   13000    300.77027
   14000    300.07946
   15000    299.78794
   16000    300.93928
   17000    299.69254
   18000    300.29225
   19000    300.67191
   20000    299.31188
   21000    300.37994
   22000    300.56696
   23000     300.0279
   24000    300.01552
   25000    299.00561
   26000    298.94315
   27000    300.79927
   28000    300.35814
   29000    300.89665
   30000    300.17937
   31000    300.50988
   32000    299.60088
   33000    300.17327
   34000    301.20604
   35000    300.45441
   36000    298.88812
   37000    299.90173
   38000    299.54639
   39000    299.30256
   40000    300.76606
   41000    300.16067
   42000    299.32171
   43000    300.53167
   44000    299.19417
   45000      300.093
   45001     300.1293
Loop time of 599.963 on 32 procs for 40000 steps with 193600 atoms

velocity	all scale $T
velocity	all scale 300
unfix		NVT

fix		NVE all nve
fix		hot all langevin 319.9225 319.9225 0.05 389516 tally yes
fix_modify	hot temp Thot
fix		cold all langevin 280.0775 280.0775 0.05 46579 tally yes
fix_modify	cold temp Tcold

thermo_style	custom step temp c_Thot c_Tcold f_hot f_cold
run		100000
Step Temp c_Thot c_Tcold f_hot f_cold
45001          300    302.21114    297.83062           -0           -0
Averages over the last 51 of 102 rows, steps 96000 to 145001:
Temp c_Thot c_Tcold f_hot f_cold
299.881 318.391 281.302 -1794.07 1799.01
Loop time of 1625.32 on 32 procs for 100000 steps with 193600 atoms

# thermal conductivity calculation
# reset langevin thermostats to zero energy accumulation
reset_timestep 0
thermo		$c
thermo		500000
compute		ke all ke/atom
variable	temp atom c_ke/1.5/8.617332478e-5
fix		hot all langevin 319.9225 319.9225 0.05 389516 tally yes
fix_modify	hot temp Thot
fix		cold all langevin 280.0775 280.0775 0.05 46579 tally yes
fix_modify	cold temp Tcold

compute		ch all chunk/atom bin/1d x lower 0.02 units reduced
fix		11 all ave/chunk 100 5000 500000 ch v_temp file sw_32.langevin
thermo_style	custom step temp c_Thot c_Tcold f_hot f_cold

run		500000
Step Temp c_Thot c_Tcold f_hot f_cold
0    300.64542    316.64952    280.85072           -0           -0
Loop time of 8136.68 on 32 procs for 500000 steps with 193600 atoms

clear
next		P
jump		Si.in
