# temperature
variable	T equal 300
#cold region temperature
#variable        tlo equal 275
variable        tlo equal 300-50*1.5938/4.0
#hot region temperature
variable        thi equal 300+50*1.5938/4.0

#time step (picoseconds)
variable	dt equal 0.0005 # 0.5 femtoseconds
#number of time steps for NPT
variable	tnpt equal 5000
#number of time steps for NVT
variable	tnvt equal 40000
#number of time steps for first NVE
variable	t1nve equal 100000
#number of time steps for second NVE
variable	t2nve equal 500000

################### Variable Based on LAMMPS Documentation ######################
variable	a equal 100
variable	c equal 500000
variable	b equal $c/$a
variable	b equal 500000/$a
variable	b equal 500000/100
variable	tdamp equal 0.0005*100
variable	pdamp equal 0.0005*1000

#----------------------------------------------------------------------------------------
# setup problem
dimension       3
boundary        p p p
atom_style      atomic
lattice 	diamond 5.43 origin 0.0 0.0 0.0 orient x 1 0 0 orient y 0 1 0 orient z 0 0 1
Lattice spacing in x,y,z = 5.43 5.43 5.43
region          0 block 0 $L 0 $W 0 $H units lattice side in
region          0 block 0 50 0 $W 0 $H units lattice side in
region          0 block 0 50 0 22 0 $H units lattice side in
region          0 block 0 50 0 22 0 22 units lattice side in
create_box      1 0
Created orthogonal box = (0 0 0) to (271.5 119.46 119.46)
create_atoms    1 region 0
Created 193600 atoms
mass		1 28.0855
#dump_modify	1 element Si

############################################
pair_style   sw
pair_coeff   * * Si36.sw Si
thermo		100
thermo_style custom step lx
min_style cg
minimize 0.0 1.0e-8 10000 100000
  update every 1 steps, delay 0 steps, check yes
Step Lx
       0        271.5
       1        271.5
Loop time of 0.0424764 on 32 procs for 1 steps with 193600 atoms

Minimization stats:
  Stopping criterion = force tolerance
  Energy initial, next-to-last, final =
  Force two-norm initial, final = 8.66037e-11 8.65404e-11
  Force max component initial, final = 5.02169e-13 5.04846e-13
  Final line search alpha, max atom move = 1 5.04846e-13
  Iterations, force evaluations = 1 2

timestep     0.0005
velocity 	all create $T 492845
velocity 	all create 300 492845

fix 		NPT all npt temp 300 300 0.05 iso 0.0 0.0 0.5
thermo		100
thermo_style custom step lx press
run		5000
Step Lx Press
1        271.5   -49616.005
Averages over the last 26 of 52 rows, steps 2600 to 5001:
Lx Press
267.369 -0.582798
Loop time of 94.1305 on 32 procs for 5000 steps with 193600 atoms

unfix		NPT
variable	length equal lx/5.43

################### Geometrical Parameters After Relaxation ###############################
# Thermostat_width
variable	TW equal 49.2388741454943/40
# Hot_Start
variable	hs equal 49.2388741454943/4-1.23097185363736
# Hot_End
variable	he equal 49.2388741454943/4+1.23097185363736
# Cold_Start
variable	cs equal 3*49.2388741454943/4-1.23097185363736
# Cold_End
variable	ce equal 3*49.2388741454943/4+1.23097185363736
###########################################################################################

################### Defining Thermostat ###################################################
region 		hot block 11.0787466827362 13.5406903900109 EDGE EDGE EDGE EDGE
region 		cold block 35.6981837554834 38.1601274627581 EDGE EDGE EDGE EDGE
group		test region cold
9567 atoms in group test
group		test1 region hot
9568 atoms in group test1
compute		Thot all temp/region hot
compute         Tcold all temp/region cold
###########################################################################################

fix		NVT all nvt temp 300 300 0.05
thermo		1000
thermo_style	custom step temp
run		40000
Step Temp
    5001    301.42374
    6000    298.41461
    7000    298.91732
    8000    300.32519
    9000    299.34913
   10000    299.89953
   11000    299.97552
   12000    302.07231
   13000    301.87853
   14000    299.36146
   15000    299.76738
   16000    298.38925
   17000    298.96145
   18000    300.22895
   19000     299.9817
   20000    298.15022
   21000    299.64968
   22000    300.43372
   23000    300.56219
   24000    299.00141
   25000    298.79311
   26000    299.24987
   27000    300.58022
   28000    299.86763
   29000    300.64658
   30000    300.53135
   31000    300.22434
   32000    300.67709
   33000    299.95475
   34000    302.00216
   35000    299.98638
   36000    299.89466
   37000    300.56183
   38000    300.28582
   39000    299.82757
   40000    299.93256
   41000    300.32828
   42000    300.99665
   43000    300.74293
   44000    300.01932
   45000     300.5446
   45001    300.47839
Loop time of 714.529 on 32 procs for 40000 steps with 193600 atoms

velocity	all scale $T
velocity	all scale 300
unfix		NVT

fix		NVE all nve
fix		hot all langevin 319.9225 319.9225 0.05 389516 tally yes
fix_modify	hot temp Thot
fix		cold all langevin 280.0775 280.0775 0.05 46579 tally yes
fix_modify	cold temp Tcold

thermo_style	custom step temp c_Thot c_Tcold f_hot f_cold
run		100000
Step Temp c_Thot c_Tcold f_hot f_cold
45001          300    300.89827    295.68015           -0           -0
Averages over the last 51 of 102 rows, steps 96000 to 145001:
Temp c_Thot c_Tcold f_hot f_cold
299.626 318.344 281.928 -2198.64 2209.7
Loop time of 1935.72 on 32 procs for 100000 steps with 193600 atoms

# thermal conductivity calculation
# reset langevin thermostats to zero energy accumulation
reset_timestep 0
thermo		$c
thermo		500000
compute		ke all ke/atom
variable	temp atom c_ke/1.5/8.617332478e-5
fix		hot all langevin 319.9225 319.9225 0.05 389516 tally yes
fix_modify	hot temp Thot
fix		cold all langevin 280.0775 280.0775 0.05 46579 tally yes
fix_modify	cold temp Tcold

compute		ch all chunk/atom bin/1d x lower 0.02 units reduced
fix		11 all ave/chunk 100 5000 500000 ch v_temp file sw_36.langevin
thermo_style	custom step temp c_Thot c_Tcold f_hot f_cold

run		500000
Step Temp c_Thot c_Tcold f_hot f_cold
0    299.07349    314.24058    281.55136           -0           -0
Loop time of 9697.8 on 32 procs for 500000 steps with 193600 atoms

clear
next		P
jump		Si.in
