# temperature
variable	T equal 300
#cold region temperature
#variable        tlo equal 275
variable        tlo equal 300-50*1.5938/4.0
#hot region temperature
variable        thi equal 300+50*1.5938/4.0

#time step (picoseconds)
variable	dt equal 0.0005 # 0.5 femtoseconds
#number of time steps for NPT
variable	tnpt equal 5000
#number of time steps for NVT
variable	tnvt equal 40000
#number of time steps for first NVE
variable	t1nve equal 100000
#number of time steps for second NVE
variable	t2nve equal 500000

################### Variable Based on LAMMPS Documentation ######################
variable	a equal 100
variable	c equal 500000
variable	b equal $c/$a
variable	b equal 500000/$a
variable	b equal 500000/100
variable	tdamp equal 0.0005*100
variable	pdamp equal 0.0005*1000

#----------------------------------------------------------------------------------------
# setup problem
dimension       3
boundary        p p p
atom_style      atomic
lattice 	diamond 5.43 origin 0.0 0.0 0.0 orient x 1 0 0 orient y 0 1 0 orient z 0 0 1
Lattice spacing in x,y,z = 5.43 5.43 5.43
region          0 block 0 $L 0 $W 0 $H units lattice side in
region          0 block 0 50 0 $W 0 $H units lattice side in
region          0 block 0 50 0 22 0 $H units lattice side in
region          0 block 0 50 0 22 0 22 units lattice side in
create_box      1 0
Created orthogonal box = (0 0 0) to (271.5 119.46 119.46)
create_atoms    1 region 0
Created 193600 atoms
mass		1 28.0855
#dump_modify	1 element Si

############################################
pair_style   sw
pair_coeff   * * Si40.sw Si
thermo		100
thermo_style custom step lx
min_style cg
minimize 0.0 1.0e-8 10000 100000
  update every 1 steps, delay 0 steps, check yes
Step Lx
       0        271.5
       1        271.5
Loop time of 0.304933 on 32 procs for 1 steps with 193600 atoms

Minimization stats:
  Stopping criterion = force tolerance
  Energy initial, next-to-last, final =
  Force two-norm initial, final = 1.0342e-10 1.03346e-10
  Force max component initial, final = 6.05051e-13 6.07844e-13
  Final line search alpha, max atom move = 1 6.07844e-13
  Iterations, force evaluations = 1 2

timestep     0.0005
velocity 	all create $T 492845
velocity 	all create 300 492845

fix 		NPT all npt temp 300 300 0.05 iso 0.0 0.0 0.5
thermo		100
thermo_style custom step lx press
run		5000
Step Lx Press
1        271.5    54321.174
Averages over the last 26 of 52 rows, steps 2600 to 5001:
Lx Press
276.504 1.54996
Loop time of 280.354 on 32 procs for 5000 steps with 193600 atoms

unfix		NPT
variable	length equal lx/5.43

################### Geometrical Parameters After Relaxation ###############################
# Thermostat_width
variable	TW equal 50.9208504269102/40
# Hot_Start
variable	hs equal 50.9208504269102/4-1.27302126067275
# Hot_End
variable	he equal 50.9208504269102/4+1.27302126067275
# Cold_Start
variable	cs equal 3*50.9208504269102/4-1.27302126067275
# Cold_End
variable	ce equal 3*50.9208504269102/4+1.27302126067275
###########################################################################################

################### Defining Thermostat ###################################################
region 		hot block 11.4571913460548 14.0032338674003 EDGE EDGE EDGE EDGE
region 		cold block 36.9176165595099 39.4636590808554 EDGE EDGE EDGE EDGE
group		test region cold
9573 atoms in group test
group		test1 region hot
9567 atoms in group test1
compute		Thot all temp/region hot
compute         Tcold all temp/region cold
###########################################################################################

fix		NVT all nvt temp 300 300 0.05
thermo		1000
thermo_style	custom step temp
run		40000
Step Temp
    5001    297.97148
    6000    301.67399
    7000    303.00439
    8000    298.53561
    9000     300.0334
   10000    297.82209
   11000    300.42755
   12000    299.75512
   13000    300.50847
   14000    300.81265
   15000    299.15449
   16000     301.9088
   17000     299.3131
   18000    300.25261
   19000     298.0404
   20000     301.1091
   21000    301.56472
   22000    300.36666
   23000    300.22387
   24000    298.46573
   25000    300.86197
   26000    300.68698
   27000     299.5293
   28000    299.23379
   29000    299.24953
   30000    299.81638
   31000    300.42351
   32000    300.30732
   33000     299.4292
   34000    300.14387
   35000    298.62197
   36000    300.48632
   37000    299.20573
   38000    301.39106
   39000    300.02498
   40000    300.42452
   41000    301.09483
   42000     299.4343
   43000    300.06738
   44000    300.45045
   45000    299.37114
   45001    299.36074
Loop time of 2137.69 on 32 procs for 40000 steps with 193600 atoms

velocity	all scale $T
velocity	all scale 300
unfix		NVT

fix		NVE all nve
fix		hot all langevin 319.9225 319.9225 0.05 389516 tally yes
fix_modify	hot temp Thot
fix		cold all langevin 280.0775 280.0775 0.05 46579 tally yes
fix_modify	cold temp Tcold

thermo_style	custom step temp c_Thot c_Tcold f_hot f_cold
run		100000
Step Temp c_Thot c_Tcold f_hot f_cold
45001          300    303.62321    298.16516           -0           -0
Averages over the last 51 of 102 rows, steps 96000 to 145001:
Temp c_Thot c_Tcold f_hot f_cold
300.033 318.663 281.769 -3067.3 3051.88
Loop time of 5463.99 on 32 procs for 100000 steps with 193600 atoms

# thermal conductivity calculation
# reset langevin thermostats to zero energy accumulation
reset_timestep 0
thermo		$c
thermo		500000
compute		ke all ke/atom
variable	temp atom c_ke/1.5/8.617332478e-5
fix		hot all langevin 319.9225 319.9225 0.05 389516 tally yes
fix_modify	hot temp Thot
fix		cold all langevin 280.0775 280.0775 0.05 46579 tally yes
fix_modify	cold temp Tcold

compute		ch all chunk/atom bin/1d x lower 0.02 units reduced
fix		11 all ave/chunk 100 5000 500000 ch v_temp file sw_40.langevin
thermo_style	custom step temp c_Thot c_Tcold f_hot f_cold

run		500000
Step Temp c_Thot c_Tcold f_hot f_cold
0     298.7829    321.71587     278.4184           -0           -0
Loop time of 27267.8 on 32 procs for 500000 steps with 193600 atoms

clear
next		P
jump		Si.in
