# temperature
variable	T equal 300
#cold region temperature
#variable        tlo equal 275
variable        tlo equal 300-50*1.5938/4.0
#hot region temperature
variable        thi equal 300+50*1.5938/4.0

#time step (picoseconds)
variable	dt equal 0.0005 # 0.5 femtoseconds
#number of time steps for NPT
variable	tnpt equal 5000
#number of time steps for NVT
variable	tnvt equal 40000
#number of time steps for first NVE
variable	t1nve equal 100000
#number of time steps for second NVE
variable	t2nve equal 500000

################### Variable Based on LAMMPS Documentation ######################
variable	a equal 100
variable	c equal 500000
variable	b equal $c/$a
variable	b equal 500000/$a
variable	b equal 500000/100
variable	tdamp equal 0.0005*100
variable	pdamp equal 0.0005*1000

#----------------------------------------------------------------------------------------
# setup problem
dimension       3
boundary        p p p
atom_style      atomic
lattice 	diamond 5.43 origin 0.0 0.0 0.0 orient x 1 0 0 orient y 0 1 0 orient z 0 0 1
Lattice spacing in x,y,z = 5.43 5.43 5.43
region          0 block 0 $L 0 $W 0 $H units lattice side in
region          0 block 0 50 0 $W 0 $H units lattice side in
region          0 block 0 50 0 22 0 $H units lattice side in
region          0 block 0 50 0 22 0 22 units lattice side in
create_box      1 0
Created orthogonal box = (0 0 0) to (271.5 119.46 119.46)
create_atoms    1 region 0
Created 193600 atoms
mass		1 28.0855
#dump_modify	1 element Si

############################################
pair_style   sw
pair_coeff   * * Si4.sw Si
thermo		100
thermo_style custom step lx
min_style cg
minimize 0.0 1.0e-8 10000 100000
  update every 1 steps, delay 0 steps, check yes
Step Lx
       0        271.5
       1        271.5
Loop time of 0.318998 on 32 procs for 1 steps with 193600 atoms

Minimization stats:
  Stopping criterion = force tolerance
  Energy initial, next-to-last, final =
  Force two-norm initial, final = 2.07183e-10 2.05701e-10
  Force max component initial, final = 1.39541e-12 1.40531e-12
  Final line search alpha, max atom move = 1 1.40531e-12
  Iterations, force evaluations = 1 2

timestep     0.0005
velocity 	all create $T 492845
velocity 	all create 300 492845

fix 		NPT all npt temp 300 300 0.05 iso 0.0 0.0 0.5
thermo		100
thermo_style custom step lx press
run		5000
Step Lx Press
1        271.5     295769.2
Averages over the last 26 of 52 rows, steps 2600 to 5001:
Lx Press
283.269 -1.11181
Loop time of 541.682 on 32 procs for 5000 steps with 193600 atoms

unfix		NPT
variable	length equal lx/5.43

################### Geometrical Parameters After Relaxation ###############################
# Thermostat_width
variable	TW equal 52.168525482725/40
# Hot_Start
variable	hs equal 52.168525482725/4-1.30421313706813
# Hot_End
variable	he equal 52.168525482725/4+1.30421313706813
# Cold_Start
variable	cs equal 3*52.168525482725/4-1.30421313706813
# Cold_End
variable	ce equal 3*52.168525482725/4+1.30421313706813
###########################################################################################

################### Defining Thermostat ###################################################
region 		hot block 11.7379182336131 14.3463445077494 EDGE EDGE EDGE EDGE
region 		cold block 37.8221809749756 40.4306072491119 EDGE EDGE EDGE EDGE
group		test region cold
9581 atoms in group test
group		test1 region hot
9575 atoms in group test1
compute		Thot all temp/region hot
compute         Tcold all temp/region cold
###########################################################################################

fix		NVT all nvt temp 300 300 0.05
thermo		1000
thermo_style	custom step temp
run		40000
Step Temp
    5001    300.28516
    6000    297.93641
    7000     297.7492
    8000    298.42817
    9000    301.23242
   10000     300.4401
   11000     300.3708
   12000     299.6059
   13000    301.20151
   14000    298.28314
   15000    299.13314
   16000    300.96936
   17000    300.55012
   18000    300.46079
   19000    299.80326
   20000    299.96561
   21000    299.53833
   22000    299.68235
   23000    299.98067
   24000    300.49443
   25000     299.5891
   26000    300.62842
   27000    300.45158
   28000    299.23361
   29000    300.75432
   30000    299.76557
   31000    301.03049
   32000     299.8263
   33000    299.55591
   34000    299.70646
   35000    300.40977
   36000    300.20618
   37000    299.49847
   38000    300.68197
   39000      299.824
   40000    298.83984
   41000    299.95525
   42000      300.339
   43000    299.98626
   44000    299.83159
   45000    300.05514
   45001    300.08694
Loop time of 4305.9 on 32 procs for 40000 steps with 193600 atoms

velocity	all scale $T
velocity	all scale 300
unfix		NVT

fix		NVE all nve
fix		hot all langevin 319.9225 319.9225 0.05 389516 tally yes
fix_modify	hot temp Thot
fix		cold all langevin 280.0775 280.0775 0.05 46579 tally yes
fix_modify	cold temp Tcold

thermo_style	custom step temp c_Thot c_Tcold f_hot f_cold
run		100000
Step Temp c_Thot c_Tcold f_hot f_cold
45001          300    297.12685    300.51003           -0           -0
Averages over the last 51 of 102 rows, steps 96000 to 145001:
Temp c_Thot c_Tcold f_hot f_cold
300.449 318.434 281.563 -3304.75 3283.38
Loop time of 11212.3 on 32 procs for 100000 steps with 193600 atoms

# thermal conductivity calculation
# reset langevin thermostats to zero energy accumulation
reset_timestep 0
thermo		$c
thermo		500000
compute		ke all ke/atom
variable	temp atom c_ke/1.5/8.617332478e-5
fix		hot all langevin 319.9225 319.9225 0.05 389516 tally yes
fix_modify	hot temp Thot
fix		cold all langevin 280.0775 280.0775 0.05 46579 tally yes
fix_modify	cold temp Tcold

compute		ch all chunk/atom bin/1d x lower 0.02 units reduced
fix		11 all ave/chunk 100 5000 500000 ch v_temp file sw_4.langevin
thermo_style	custom step temp c_Thot c_Tcold f_hot f_cold

run		500000
Step Temp c_Thot c_Tcold f_hot f_cold
0     299.7535    313.41632    281.55757           -0           -0
Loop time of 54833 on 32 procs for 500000 steps with 193600 atoms

clear
next		P
jump		Si.in
