# temperature
variable	T equal 300
#cold region temperature
#variable        tlo equal 275
variable        tlo equal 300-50*1.5938/4.0
#hot region temperature
variable        thi equal 300+50*1.5938/4.0

#time step (picoseconds)
variable	dt equal 0.0005 # 0.5 femtoseconds
#number of time steps for NPT
variable	tnpt equal 5000
#number of time steps for NVT
variable	tnvt equal 40000
#number of time steps for first NVE
variable	t1nve equal 100000
#number of time steps for second NVE
variable	t2nve equal 500000

################### Variable Based on LAMMPS Documentation ######################
variable	a equal 100
variable	c equal 500000
variable	b equal $c/$a
variable	b equal 500000/$a
variable	b equal 500000/100
variable	tdamp equal 0.0005*100
variable	pdamp equal 0.0005*1000

#----------------------------------------------------------------------------------------
# setup problem
dimension       3
boundary        p p p
atom_style      atomic
lattice 	diamond 5.43 origin 0.0 0.0 0.0 orient x 1 0 0 orient y 0 1 0 orient z 0 0 1
Lattice spacing in x,y,z = 5.43 5.43 5.43
region          0 block 0 $L 0 $W 0 $H units lattice side in
region          0 block 0 50 0 $W 0 $H units lattice side in
region          0 block 0 50 0 22 0 $H units lattice side in
region          0 block 0 50 0 22 0 22 units lattice side in
create_box      1 0
Created orthogonal box = (0 0 0) to (271.5 119.46 119.46)
create_atoms    1 region 0
Created 193600 atoms
mass		1 28.0855
#dump_modify	1 element Si

############################################
pair_style   sw
pair_coeff   * * Si12.sw Si
thermo		100
thermo_style custom step lx
min_style cg
minimize 0.0 1.0e-8 10000 100000
  update every 1 steps, delay 0 steps, check yes
Step Lx
       0        271.5
       1        271.5
Loop time of 0.0420444 on 32 procs for 1 steps with 193600 atoms

Minimization stats:
  Stopping criterion = force tolerance
  Energy initial, next-to-last, final =
  Force two-norm initial, final = 6.96232e-11 6.95765e-11
  Force max component initial, final = 4.02567e-13 4.04399e-13
  Final line search alpha, max atom move = 1 4.04399e-13
  Iterations, force evaluations = 1 2

timestep     0.0005
velocity 	all create $T 492845
velocity 	all create 300 492845

fix 		NPT all npt temp 300 300 0.05 iso 0.0 0.0 0.5
thermo		100
thermo_style custom step lx press
run		5000
Step Lx Press
1        271.5   -83477.207
Averages over the last 26 of 52 rows, steps 2600 to 5001:
Lx Press
263.675 3.60451
Loop time of 76.6932 on 32 procs for 5000 steps with 193600 atoms

unfix		NPT
variable	length equal lx/5.43

################### Geometrical Parameters After Relaxation ###############################
# Thermostat_width
variable	TW equal 48.5570637471956/40
# Hot_Start
variable	hs equal 48.5570637471956/4-1.21392659367989
# Hot_End
variable	he equal 48.5570637471956/4+1.21392659367989
# Cold_Start
variable	cs equal 3*48.5570637471956/4-1.21392659367989
# Cold_End
variable	ce equal 3*48.5570637471956/4+1.21392659367989
###########################################################################################

################### Defining Thermostat ###################################################
region 		hot block 10.925339343119 13.3531925304788 EDGE EDGE EDGE EDGE
region 		cold block 35.2038712167168 37.6317244040766 EDGE EDGE EDGE EDGE
group		test region cold
9552 atoms in group test
group		test1 region hot
9540 atoms in group test1
compute		Thot all temp/region hot
compute         Tcold all temp/region cold
###########################################################################################

fix		NVT all nvt temp 300 300 0.05
thermo		1000
thermo_style	custom step temp
run		40000
Step Temp
    5001     296.6777
    6000    299.43043
    7000     300.4061
    8000    299.18856
    9000    300.41546
   10000    300.81726
   11000    299.99975
   12000    301.03376
   13000    300.96973
   14000    299.12879
   15000    301.47704
   16000    299.11515
   17000    298.56408
   18000    300.36566
   19000    299.27611
   20000    300.04096
   21000    299.74228
   22000    299.38086
   23000    299.20304
   24000    299.48961
   25000    299.81596
   26000    299.40264
   27000    299.70235
   28000    299.95688
   29000    300.07539
   30000    299.79111
   31000    298.07782
   32000    299.59301
   33000    300.16514
   34000    300.27055
   35000     300.8396
   36000    300.57711
   37000    300.55343
   38000    299.34029
   39000    299.84143
   40000    300.03452
   41000    300.83608
   42000    299.81836
   43000    299.30418
   44000    300.08666
   45000    299.18955
   45001    299.21697
Loop time of 576.367 on 32 procs for 40000 steps with 193600 atoms

velocity	all scale $T
velocity	all scale 300
unfix		NVT

fix		NVE all nve
fix		hot all langevin 319.9225 319.9225 0.05 389516 tally yes
fix_modify	hot temp Thot
fix		cold all langevin 280.0775 280.0775 0.05 46579 tally yes
fix_modify	cold temp Tcold

thermo_style	custom step temp c_Thot c_Tcold f_hot f_cold
run		100000
Step Temp c_Thot c_Tcold f_hot f_cold
45001          300    303.28356    298.18748           -0           -0
Averages over the last 51 of 102 rows, steps 96000 to 145001:
Temp c_Thot c_Tcold f_hot f_cold
300.344 319.372 280.724 -1696.17 1685.79
Loop time of 1580.11 on 32 procs for 100000 steps with 193600 atoms

# thermal conductivity calculation
# reset langevin thermostats to zero energy accumulation
reset_timestep 0
thermo		$c
thermo		500000
compute		ke all ke/atom
variable	temp atom c_ke/1.5/8.617332478e-5
fix		hot all langevin 319.9225 319.9225 0.05 389516 tally yes
fix_modify	hot temp Thot
fix		cold all langevin 280.0775 280.0775 0.05 46579 tally yes
fix_modify	cold temp Tcold

compute		ch all chunk/atom bin/1d x lower 0.02 units reduced
fix		11 all ave/chunk 100 5000 500000 ch v_temp file sw_12.langevin
thermo_style	custom step temp c_Thot c_Tcold f_hot f_cold

run		500000
Step Temp c_Thot c_Tcold f_hot f_cold
0    300.97387    321.32525    278.64018           -0           -0
Loop time of 8436.22 on 32 procs for 500000 steps with 193600 atoms

clear
next		P
jump		Si.in
