# temperature
variable	T equal 300
#cold region temperature
#variable        tlo equal 275
variable        tlo equal 300-50*1.5938/4.0
#hot region temperature
variable        thi equal 300+50*1.5938/4.0

#time step (picoseconds)
variable	dt equal 0.0005 # 0.5 femtoseconds
#number of time steps for NPT
variable	tnpt equal 5000
#number of time steps for NVT
variable	tnvt equal 40000
#number of time steps for first NVE
variable	t1nve equal 100000
#number of time steps for second NVE
variable	t2nve equal 500000

################### Variable Based on LAMMPS Documentation ######################
variable	a equal 100
variable	c equal 500000
variable	b equal $c/$a
variable	b equal 500000/$a
variable	b equal 500000/100
variable	tdamp equal 0.0005*100
variable	pdamp equal 0.0005*1000

#----------------------------------------------------------------------------------------
# setup problem
dimension       3
boundary        p p p
atom_style      atomic
lattice 	diamond 5.43 origin 0.0 0.0 0.0 orient x 1 0 0 orient y 0 1 0 orient z 0 0 1
Lattice spacing in x,y,z = 5.43 5.43 5.43
region          0 block 0 $L 0 $W 0 $H units lattice side in
region          0 block 0 50 0 $W 0 $H units lattice side in
region          0 block 0 50 0 22 0 $H units lattice side in
region          0 block 0 50 0 22 0 22 units lattice side in
create_box      1 0
Created orthogonal box = (0 0 0) to (271.5 119.46 119.46)
create_atoms    1 region 0
Created 193600 atoms
mass		1 28.0855
#dump_modify	1 element Si

############################################
pair_style   sw
pair_coeff   * * Si16.sw Si
thermo		100
thermo_style custom step lx
min_style cg
minimize 0.0 1.0e-8 10000 100000
  update every 1 steps, delay 0 steps, check yes
Step Lx
       0        271.5
       1        271.5
Loop time of 0.0412837 on 32 procs for 1 steps with 193600 atoms

Minimization stats:
  Stopping criterion = force tolerance
  Energy initial, next-to-last, final =
  Force two-norm initial, final = 9.61082e-11 9.60367e-11
  Force max component initial, final = 5.59782e-13 5.62172e-13
  Final line search alpha, max atom move = 1 5.62172e-13
  Iterations, force evaluations = 1 2

timestep     0.0005
velocity 	all create $T 492845
velocity 	all create 300 492845

fix 		NPT all npt temp 300 300 0.05 iso 0.0 0.0 0.5
thermo		100
thermo_style custom step lx press
run		5000
Step Lx Press
1        271.5   -2795.1473
Averages over the last 26 of 52 rows, steps 2600 to 5001:
Lx Press
271.412 -7.23469
Loop time of 133.71 on 32 procs for 5000 steps with 193600 atoms

unfix		NPT
variable	length equal lx/5.43

################### Geometrical Parameters After Relaxation ###############################
# Thermostat_width
variable	TW equal 49.9850558773972/40
# Hot_Start
variable	hs equal 49.9850558773972/4-1.24962639693493
# Hot_End
variable	he equal 49.9850558773972/4+1.24962639693493
# Cold_Start
variable	cs equal 3*49.9850558773972/4-1.24962639693493
# Cold_End
variable	ce equal 3*49.9850558773972/4+1.24962639693493
###########################################################################################

################### Defining Thermostat ###################################################
region 		hot block 11.2466375724144 13.7458903662842 EDGE EDGE EDGE EDGE
region 		cold block 36.239165511113 38.7384183049828 EDGE EDGE EDGE EDGE
group		test region cold
9554 atoms in group test
group		test1 region hot
9590 atoms in group test1
compute		Thot all temp/region hot
compute         Tcold all temp/region cold
###########################################################################################

fix		NVT all nvt temp 300 300 0.05
thermo		1000
thermo_style	custom step temp
run		40000
Step Temp
    5001    297.36725
    6000    296.19906
    7000    302.58604
    8000    301.64562
    9000     300.7578
   10000    299.55122
   11000    299.44682
   12000    299.95657
   13000    297.94895
   14000    299.42442
   15000    301.01749
   16000    299.49067
   17000    299.30455
   18000    300.25468
   19000    298.61129
   20000    300.79749
   21000    299.57861
   22000    300.28421
   23000     300.9059
   24000    299.77495
   25000    299.48813
   26000    300.92453
   27000    300.45915
   28000    299.40246
   29000    300.01974
   30000     300.2762
   31000    300.78688
   32000    300.09355
   33000    299.95567
   34000    301.17217
   35000    298.85779
   36000    300.87378
   37000    300.18256
   38000     299.4848
   39000    299.30628
   40000    300.27314
   41000    299.46746
   42000    298.94287
   43000    300.94459
   44000     299.3029
   45000    300.66845
   45001    300.73171
Loop time of 1032.12 on 32 procs for 40000 steps with 193600 atoms

velocity	all scale $T
velocity	all scale 300
unfix		NVT

fix		NVE all nve
fix		hot all langevin 319.9225 319.9225 0.05 389516 tally yes
fix_modify	hot temp Thot
fix		cold all langevin 280.0775 280.0775 0.05 46579 tally yes
fix_modify	cold temp Tcold

thermo_style	custom step temp c_Thot c_Tcold f_hot f_cold
run		100000
Step Temp c_Thot c_Tcold f_hot f_cold
45001          300    297.50237    302.54563           -0           -0
Averages over the last 51 of 102 rows, steps 96000 to 145001:
Temp c_Thot c_Tcold f_hot f_cold
300.137 317.806 282.009 -2827.96 2853.05
Loop time of 2727.53 on 32 procs for 100000 steps with 193600 atoms

# thermal conductivity calculation
# reset langevin thermostats to zero energy accumulation
reset_timestep 0
thermo		$c
thermo		500000
compute		ke all ke/atom
variable	temp atom c_ke/1.5/8.617332478e-5
fix		hot all langevin 319.9225 319.9225 0.05 389516 tally yes
fix_modify	hot temp Thot
fix		cold all langevin 280.0775 280.0775 0.05 46579 tally yes
fix_modify	cold temp Tcold

compute		ch all chunk/atom bin/1d x lower 0.02 units reduced
fix		11 all ave/chunk 100 5000 500000 ch v_temp file sw_16.langevin
thermo_style	custom step temp c_Thot c_Tcold f_hot f_cold

run		500000
Step Temp c_Thot c_Tcold f_hot f_cold
0    299.84794    316.04507    283.15166           -0           -0
Loop time of 13499.1 on 32 procs for 500000 steps with 193600 atoms

clear
next		P
jump		Si.in
