# temperature
variable	T equal 300
#cold region temperature
#variable        tlo equal 275
variable        tlo equal 300-50*1.5938/4.0
#hot region temperature
variable        thi equal 300+50*1.5938/4.0

#time step (picoseconds)
variable	dt equal 0.0005 # 0.5 femtoseconds
#number of time steps for NPT
variable	tnpt equal 5000
#number of time steps for NVT
variable	tnvt equal 40000
#number of time steps for first NVE
variable	t1nve equal 100000
#number of time steps for second NVE
variable	t2nve equal 500000

################### Variable Based on LAMMPS Documentation ######################
variable	a equal 100
variable	c equal 500000
variable	b equal $c/$a
variable	b equal 500000/$a
variable	b equal 500000/100
variable	tdamp equal 0.0005*100
variable	pdamp equal 0.0005*1000

#----------------------------------------------------------------------------------------
# setup problem
dimension       3
boundary        p p p
atom_style      atomic
lattice 	diamond 5.43 origin 0.0 0.0 0.0 orient x 1 0 0 orient y 0 1 0 orient z 0 0 1
Lattice spacing in x,y,z = 5.43 5.43 5.43
region          0 block 0 $L 0 $W 0 $H units lattice side in
region          0 block 0 50 0 $W 0 $H units lattice side in
region          0 block 0 50 0 22 0 $H units lattice side in
region          0 block 0 50 0 22 0 22 units lattice side in
create_box      1 0
Created orthogonal box = (0 0 0) to (271.5 119.46 119.46)
create_atoms    1 region 0
Created 193600 atoms
mass		1 28.0855
#dump_modify	1 element Si

############################################
pair_style   sw
pair_coeff   * * Si28.sw Si
thermo		100
thermo_style custom step lx
min_style cg
minimize 0.0 1.0e-8 10000 100000
  update every 1 steps, delay 0 steps, check yes
Step Lx
       0        271.5
       1        271.5
Loop time of 0.0425069 on 32 procs for 1 steps with 193600 atoms

Minimization stats:
  Stopping criterion = force tolerance
  Energy initial, next-to-last, final =
  Force two-norm initial, final = 9.50843e-11 9.50172e-11
  Force max component initial, final = 5.53402e-13 5.55334e-13
  Final line search alpha, max atom move = 1 5.55334e-13
  Iterations, force evaluations = 1 2

timestep     0.0005
velocity 	all create $T 492845
velocity 	all create 300 492845

fix 		NPT all npt temp 300 300 0.05 iso 0.0 0.0 0.5
thermo		100
thermo_style custom step lx press
run		5000
Step Lx Press
1        271.5    32528.226
Averages over the last 26 of 52 rows, steps 2600 to 5001:
Lx Press
274.526 2.2922
Loop time of 109.095 on 32 procs for 5000 steps with 193600 atoms

unfix		NPT
variable	length equal lx/5.43

################### Geometrical Parameters After Relaxation ###############################
# Thermostat_width
variable	TW equal 50.5568325384897/40
# Hot_Start
variable	hs equal 50.5568325384897/4-1.26392081346224
# Hot_End
variable	he equal 50.5568325384897/4+1.26392081346224
# Cold_Start
variable	cs equal 3*50.5568325384897/4-1.26392081346224
# Cold_End
variable	ce equal 3*50.5568325384897/4+1.26392081346224
###########################################################################################

################### Defining Thermostat ###################################################
region 		hot block 11.3752873211602 13.9031289480847 EDGE EDGE EDGE EDGE
region 		cold block 36.653703590405 39.1815452173295 EDGE EDGE EDGE EDGE
group		test region cold
9566 atoms in group test
group		test1 region hot
9585 atoms in group test1
compute		Thot all temp/region hot
compute         Tcold all temp/region cold
###########################################################################################

fix		NVT all nvt temp 300 300 0.05
thermo		1000
thermo_style	custom step temp
run		40000
Step Temp
    5001    299.71649
    6000    300.81847
    7000      302.596
    8000    299.88299
    9000     298.2857
   10000    298.17742
   11000     300.5565
   12000    301.61604
   13000    299.27201
   14000    300.00183
   15000    300.25052
   16000    298.46275
   17000    301.43366
   18000    300.58353
   19000    301.25633
   20000    299.89974
   21000    299.17505
   22000    300.39676
   23000    300.55403
   24000    299.85358
   25000    299.25555
   26000    299.42362
   27000    300.09695
   28000    300.02376
   29000    300.63388
   30000    300.37826
   31000    299.46759
   32000    299.23525
   33000    300.01199
   34000    299.87304
   35000    299.39533
   36000    299.93792
   37000    300.53286
   38000    300.53029
   39000    300.21851
   40000    298.94643
   41000    300.06778
   42000    300.98087
   43000    299.85446
   44000    300.00651
   45000    299.25485
   45001    299.17751
Loop time of 815.638 on 32 procs for 40000 steps with 193600 atoms

velocity	all scale $T
velocity	all scale 300
unfix		NVT

fix		NVE all nve
fix		hot all langevin 319.9225 319.9225 0.05 389516 tally yes
fix_modify	hot temp Thot
fix		cold all langevin 280.0775 280.0775 0.05 46579 tally yes
fix_modify	cold temp Tcold

thermo_style	custom step temp c_Thot c_Tcold f_hot f_cold
run		100000
Step Temp c_Thot c_Tcold f_hot f_cold
45001          300    301.00037    303.28915           -0           -0
Averages over the last 51 of 102 rows, steps 96000 to 145001:
Temp c_Thot c_Tcold f_hot f_cold
299.959 318.833 282.293 -2567.62 2573.47
Loop time of 2181.49 on 32 procs for 100000 steps with 193600 atoms

# thermal conductivity calculation
# reset langevin thermostats to zero energy accumulation
reset_timestep 0
thermo		$c
thermo		500000
compute		ke all ke/atom
variable	temp atom c_ke/1.5/8.617332478e-5
fix		hot all langevin 319.9225 319.9225 0.05 389516 tally yes
fix_modify	hot temp Thot
fix		cold all langevin 280.0775 280.0775 0.05 46579 tally yes
fix_modify	cold temp Tcold

compute		ch all chunk/atom bin/1d x lower 0.02 units reduced
fix		11 all ave/chunk 100 5000 500000 ch v_temp file sw_28.langevin
thermo_style	custom step temp c_Thot c_Tcold f_hot f_cold

run		500000
Step Temp c_Thot c_Tcold f_hot f_cold
0    300.28165    317.56657    287.28519           -0           -0
Loop time of 11015.6 on 32 procs for 500000 steps with 193600 atoms

clear
next		P
jump		Si.in
