# temperature
variable	T equal 300
#cold region temperature
#variable        tlo equal 275
variable        tlo equal 300-50*1.5938/4.0
#hot region temperature
variable        thi equal 300+50*1.5938/4.0

#time step (picoseconds)
variable	dt equal 0.0005 # 0.5 femtoseconds
#number of time steps for NPT
variable	tnpt equal 5000
#number of time steps for NVT
variable	tnvt equal 40000
#number of time steps for first NVE
variable	t1nve equal 100000
#number of time steps for second NVE
variable	t2nve equal 500000

################### Variable Based on LAMMPS Documentation ######################
variable	a equal 100
variable	c equal 500000
variable	b equal $c/$a
variable	b equal 500000/$a
variable	b equal 500000/100
variable	tdamp equal 0.0005*100
variable	pdamp equal 0.0005*1000

#----------------------------------------------------------------------------------------
# setup problem
dimension       3
boundary        p p p
atom_style      atomic
lattice 	diamond 5.43 origin 0.0 0.0 0.0 orient x 1 0 0 orient y 0 1 0 orient z 0 0 1
Lattice spacing in x,y,z = 5.43 5.43 5.43
region          0 block 0 $L 0 $W 0 $H units lattice side in
region          0 block 0 50 0 $W 0 $H units lattice side in
region          0 block 0 50 0 22 0 $H units lattice side in
region          0 block 0 50 0 22 0 22 units lattice side in
create_box      1 0
Created orthogonal box = (0 0 0) to (271.5 119.46 119.46)
create_atoms    1 region 0
Created 193600 atoms
mass		1 28.0855
#dump_modify	1 element Si

############################################
pair_style   sw
pair_coeff   * * Si29.sw Si
thermo		100
thermo_style custom step lx
min_style cg
minimize 0.0 1.0e-8 10000 100000
  update every 1 steps, delay 0 steps, check yes
Step Lx
       0        271.5
       1        271.5
Loop time of 0.310186 on 32 procs for 1 steps with 193600 atoms

Minimization stats:
  Stopping criterion = force tolerance
  Energy initial, next-to-last, final =
  Force two-norm initial, final = 2.07263e-10 2.05783e-10
  Force max component initial, final = 1.39669e-12 1.39667e-12
  Final line search alpha, max atom move = 1 1.39667e-12
  Iterations, force evaluations = 1 2

timestep     0.0005
velocity 	all create $T 492845
velocity 	all create 300 492845

fix 		NPT all npt temp 300 300 0.05 iso 0.0 0.0 0.5
thermo		100
thermo_style custom step lx press
run		5000
Step Lx Press
1        271.5    295801.64
Averages over the last 26 of 52 rows, steps 2600 to 5001:
Lx Press
283.27 -1.11571
Loop time of 536.006 on 32 procs for 5000 steps with 193600 atoms

unfix		NPT
variable	length equal lx/5.43

################### Geometrical Parameters After Relaxation ###############################
# Thermostat_width
variable	TW equal 52.1685828650103/40
# Hot_Start
variable	hs equal 52.1685828650103/4-1.30421457162526
# Hot_End
variable	he equal 52.1685828650103/4+1.30421457162526
# Cold_Start
variable	cs equal 3*52.1685828650103/4-1.30421457162526
# Cold_End
variable	ce equal 3*52.1685828650103/4+1.30421457162526
###########################################################################################

################### Defining Thermostat ###################################################
region 		hot block 11.7379311446273 14.3463602878778 EDGE EDGE EDGE EDGE
region 		cold block 37.8222225771325 40.430651720383 EDGE EDGE EDGE EDGE
group		test region cold
9581 atoms in group test
group		test1 region hot
9574 atoms in group test1
compute		Thot all temp/region hot
compute         Tcold all temp/region cold
###########################################################################################

fix		NVT all nvt temp 300 300 0.05
thermo		1000
thermo_style	custom step temp
run		40000
Step Temp
    5001    300.28623
    6000    297.93702
    7000    297.74709
    8000    298.45233
    9000    301.27146
   10000    300.43773
   11000    301.20788
   12000    299.69326
   13000    300.56262
   14000    299.55092
   15000    299.58584
   16000    299.67985
   17000    300.15123
   18000    300.53995
   19000    299.11717
   20000     300.0252
   21000    299.38765
   22000    300.49035
   23000    300.18376
   24000      300.122
   25000    300.20533
   26000    299.71617
   27000    300.03547
   28000    300.45663
   29000    300.78743
   30000     299.8917
   31000    300.86026
   32000     299.7191
   33000    300.09512
   34000    299.88001
   35000    300.33863
   36000    300.34138
   37000    300.75195
   38000     300.6874
   39000    299.71345
   40000    299.13976
   41000    300.19349
   42000    299.89527
   43000    300.04608
   44000    299.82124
   45000    299.73085
   45001    299.77156
Loop time of 4253.64 on 32 procs for 40000 steps with 193600 atoms

velocity	all scale $T
velocity	all scale 300
unfix		NVT

fix		NVE all nve
fix		hot all langevin 319.9225 319.9225 0.05 389516 tally yes
fix_modify	hot temp Thot
fix		cold all langevin 280.0775 280.0775 0.05 46579 tally yes
fix_modify	cold temp Tcold

thermo_style	custom step temp c_Thot c_Tcold f_hot f_cold
run		100000
Step Temp c_Thot c_Tcold f_hot f_cold
45001          300     297.2051    300.51182           -0           -0
Averages over the last 51 of 102 rows, steps 96000 to 145001:
Temp c_Thot c_Tcold f_hot f_cold
300.046 318.431 281.265 -3322.93 3309.74
Loop time of 10840 on 32 procs for 100000 steps with 193600 atoms

# thermal conductivity calculation
# reset langevin thermostats to zero energy accumulation
reset_timestep 0
thermo		$c
thermo		500000
compute		ke all ke/atom
variable	temp atom c_ke/1.5/8.617332478e-5
fix		hot all langevin 319.9225 319.9225 0.05 389516 tally yes
fix_modify	hot temp Thot
fix		cold all langevin 280.0775 280.0775 0.05 46579 tally yes
fix_modify	cold temp Tcold

compute		ch all chunk/atom bin/1d x lower 0.02 units reduced
fix		11 all ave/chunk 100 5000 500000 ch v_temp file sw_29.langevin
thermo_style	custom step temp c_Thot c_Tcold f_hot f_cold

run		500000
Step Temp c_Thot c_Tcold f_hot f_cold
0    299.65602    314.39048    277.64908           -0           -0
Loop time of 53905.7 on 32 procs for 500000 steps with 193600 atoms

clear
next		P
jump		Si.in
 units       metal
#----------------------------- User Input Variables --------------------------------------
################### Geometrical Parameters ###############################
variable	P index 29 30 31 32
variable	W equal 22
# Lattice Constant
variable	LC equal 5.43
# Length
variable	L equal 50
# Width
#variable	W equal 6
# Height
variable	H equal 22
################### Simulation Condition ###############################
#DT/DX=cte
variable	cte equal 1.5938
log         sw_30.log
