# temperature
variable	T equal 300
#cold region temperature
#variable        tlo equal 275
variable        tlo equal 300-50*1.5938/4.0
#hot region temperature
variable        thi equal 300+50*1.5938/4.0

#time step (picoseconds)
variable	dt equal 0.0005 # 0.5 femtoseconds
#number of time steps for NPT
variable	tnpt equal 5000
#number of time steps for NVT
variable	tnvt equal 40000
#number of time steps for first NVE
variable	t1nve equal 100000
#number of time steps for second NVE
variable	t2nve equal 500000

################### Variable Based on LAMMPS Documentation ######################
variable	a equal 100
variable	c equal 500000
variable	b equal $c/$a
variable	b equal 500000/$a
variable	b equal 500000/100
variable	tdamp equal 0.0005*100
variable	pdamp equal 0.0005*1000

#----------------------------------------------------------------------------------------
# setup problem
dimension       3
boundary        p p p
atom_style      atomic
lattice 	diamond 5.43 origin 0.0 0.0 0.0 orient x 1 0 0 orient y 0 1 0 orient z 0 0 1
Lattice spacing in x,y,z = 5.43 5.43 5.43
region          0 block 0 $L 0 $W 0 $H units lattice side in
region          0 block 0 50 0 $W 0 $H units lattice side in
region          0 block 0 50 0 22 0 $H units lattice side in
region          0 block 0 50 0 22 0 22 units lattice side in
create_box      1 0
Created orthogonal box = (0 0 0) to (271.5 119.46 119.46)
create_atoms    1 region 0
Created 193600 atoms
mass		1 28.0855
#dump_modify	1 element Si

############################################
pair_style   sw
pair_coeff   * * Si22.sw Si
thermo		100
thermo_style custom step lx
min_style cg
minimize 0.0 1.0e-8 10000 100000
  update every 1 steps, delay 0 steps, check yes
Step Lx
       0        271.5
       1        271.5
Loop time of 0.0421319 on 32 procs for 1 steps with 193600 atoms

Minimization stats:
  Stopping criterion = force tolerance
  Energy initial, next-to-last, final =
  Force two-norm initial, final = 6.97259e-11 6.96802e-11
  Force max component initial, final = 4.02622e-13 4.04621e-13
  Final line search alpha, max atom move = 1 4.04621e-13
  Iterations, force evaluations = 1 2

timestep     0.0005
velocity 	all create $T 492845
velocity 	all create 300 492845

fix 		NPT all npt temp 300 300 0.05 iso 0.0 0.0 0.5
thermo		100
thermo_style custom step lx press
run		5000
Step Lx Press
1        271.5    -83477.99
Averages over the last 26 of 52 rows, steps 2600 to 5001:
Lx Press
263.675 3.60503
Loop time of 76.5264 on 32 procs for 5000 steps with 193600 atoms

unfix		NPT
variable	length equal lx/5.43

################### Geometrical Parameters After Relaxation ###############################
# Thermostat_width
variable	TW equal 48.5570490827319/40
# Hot_Start
variable	hs equal 48.5570490827319/4-1.2139262270683
# Hot_End
variable	he equal 48.5570490827319/4+1.2139262270683
# Cold_Start
variable	cs equal 3*48.5570490827319/4-1.2139262270683
# Cold_End
variable	ce equal 3*48.5570490827319/4+1.2139262270683
###########################################################################################

################### Defining Thermostat ###################################################
region 		hot block 10.9253360436147 13.3531884977513 EDGE EDGE EDGE EDGE
region 		cold block 35.2038605849806 37.6317130391172 EDGE EDGE EDGE EDGE
group		test region cold
9552 atoms in group test
group		test1 region hot
9540 atoms in group test1
compute		Thot all temp/region hot
compute         Tcold all temp/region cold
###########################################################################################

fix		NVT all nvt temp 300 300 0.05
thermo		1000
thermo_style	custom step temp
run		40000
Step Temp
    5001    296.67789
    6000     299.4306
    7000    300.40617
    8000    299.18869
    9000    300.41553
   10000    300.81744
   11000    299.99991
   12000    301.03356
   13000    300.96934
   14000    299.12903
   15000    301.47737
   16000    299.11646
   17000    298.56491
   18000    300.36062
   19000    299.26676
   20000    300.04537
   21000    299.74297
   22000    299.37849
   23000    299.20221
   24000    299.48656
   25000    299.82138
   26000    299.41048
   27000    299.70029
   28000    299.95894
   29000     300.0213
   30000     299.7551
   31000      298.044
   32000    299.63828
   33000    300.08594
   34000    299.77916
   35000    301.61584
   36000     300.0286
   37000    299.70434
   38000    298.97975
   39000    299.45005
   40000    300.03883
   41000    300.96322
   42000    299.80402
   43000    299.33387
   44000    299.26983
   45000    299.21407
   45001    299.23352
Loop time of 641.436 on 32 procs for 40000 steps with 193600 atoms

velocity	all scale $T
velocity	all scale 300
unfix		NVT

fix		NVE all nve
fix		hot all langevin 319.9225 319.9225 0.05 389516 tally yes
fix_modify	hot temp Thot
fix		cold all langevin 280.0775 280.0775 0.05 46579 tally yes
fix_modify	cold temp Tcold

thermo_style	custom step temp c_Thot c_Tcold f_hot f_cold
run		100000
Step Temp c_Thot c_Tcold f_hot f_cold
45001          300     303.1974    298.23427           -0           -0
Averages over the last 51 of 102 rows, steps 96000 to 145001:
Temp c_Thot c_Tcold f_hot f_cold
300.094 319.292 281.594 -1615.51 1619.28
Loop time of 1931.59 on 32 procs for 100000 steps with 193600 atoms

# thermal conductivity calculation
# reset langevin thermostats to zero energy accumulation
reset_timestep 0
thermo		$c
thermo		500000
compute		ke all ke/atom
variable	temp atom c_ke/1.5/8.617332478e-5
fix		hot all langevin 319.9225 319.9225 0.05 389516 tally yes
fix_modify	hot temp Thot
fix		cold all langevin 280.0775 280.0775 0.05 46579 tally yes
fix_modify	cold temp Tcold

compute		ch all chunk/atom bin/1d x lower 0.02 units reduced
fix		11 all ave/chunk 100 5000 500000 ch v_temp file sw_22.langevin
thermo_style	custom step temp c_Thot c_Tcold f_hot f_cold

run		500000
Step Temp c_Thot c_Tcold f_hot f_cold
0     300.2314    318.55265    280.51815           -0           -0
Loop time of 9159.85 on 32 procs for 500000 steps with 193600 atoms

clear
next		P
jump		Si.in
 units       metal
#----------------------------- User Input Variables --------------------------------------
################### Geometrical Parameters ###############################
variable	P index 21 22 23 24
variable	W equal 22
# Lattice Constant
variable	LC equal 5.43
# Length
variable	L equal 50
# Width
#variable	W equal 6
# Height
variable	H equal 22
################### Simulation Condition ###############################
#DT/DX=cte
variable	cte equal 1.5938
log         sw_23.log
