# temperature
variable	T equal 300
#cold region temperature
#variable        tlo equal 275
variable        tlo equal 300-50*1.5938/4.0
#hot region temperature
variable        thi equal 300+50*1.5938/4.0

#time step (picoseconds)
variable	dt equal 0.0005 # 0.5 femtoseconds
#number of time steps for NPT
variable	tnpt equal 5000
#number of time steps for NVT
variable	tnvt equal 40000
#number of time steps for first NVE
variable	t1nve equal 100000
#number of time steps for second NVE
variable	t2nve equal 500000

################### Variable Based on LAMMPS Documentation ######################
variable	a equal 100
variable	c equal 500000
variable	b equal $c/$a
variable	b equal 500000/$a
variable	b equal 500000/100
variable	tdamp equal 0.0005*100
variable	pdamp equal 0.0005*1000

#----------------------------------------------------------------------------------------
# setup problem
dimension       3
boundary        p p p
atom_style      atomic
lattice 	diamond 5.43 origin 0.0 0.0 0.0 orient x 1 0 0 orient y 0 1 0 orient z 0 0 1
Lattice spacing in x,y,z = 5.43 5.43 5.43
region          0 block 0 $L 0 $W 0 $H units lattice side in
region          0 block 0 50 0 $W 0 $H units lattice side in
region          0 block 0 50 0 22 0 $H units lattice side in
region          0 block 0 50 0 22 0 22 units lattice side in
create_box      1 0
Created orthogonal box = (0 0 0) to (271.5 119.46 119.46)
create_atoms    1 region 0
Created 193600 atoms
mass		1 28.0855
#dump_modify	1 element Si

############################################
pair_style   sw
pair_coeff   * * Si24.sw Si
thermo		100
thermo_style custom step lx
min_style cg
minimize 0.0 1.0e-8 10000 100000
  update every 1 steps, delay 0 steps, check yes
Step Lx
       0        271.5
       1        271.5
Loop time of 0.307304 on 32 procs for 1 steps with 193600 atoms

Minimization stats:
  Stopping criterion = force tolerance
  Energy initial, next-to-last, final =
  Force two-norm initial, final = 2.06912e-10 2.05429e-10
  Force max component initial, final = 1.39394e-12 1.40426e-12
  Final line search alpha, max atom move = 1 1.40426e-12
  Iterations, force evaluations = 1 2

timestep     0.0005
velocity 	all create $T 492845
velocity 	all create 300 492845

fix 		NPT all npt temp 300 300 0.05 iso 0.0 0.0 0.5
thermo		100
thermo_style custom step lx press
run		5000
Step Lx Press
1        271.5    295769.11
Averages over the last 26 of 52 rows, steps 2600 to 5001:
Lx Press
283.269 -1.112
Loop time of 575.439 on 32 procs for 5000 steps with 193600 atoms

unfix		NPT
variable	length equal lx/5.43

################### Geometrical Parameters After Relaxation ###############################
# Thermostat_width
variable	TW equal 52.1685227349698/40
# Hot_Start
variable	hs equal 52.1685227349698/4-1.30421306837424
# Hot_End
variable	he equal 52.1685227349698/4+1.30421306837424
# Cold_Start
variable	cs equal 3*52.1685227349698/4-1.30421306837424
# Cold_End
variable	ce equal 3*52.1685227349698/4+1.30421306837424
###########################################################################################

################### Defining Thermostat ###################################################
region 		hot block 11.7379176153682 14.3463437521167 EDGE EDGE EDGE EDGE
region 		cold block 37.8221789828531 40.4306051196016 EDGE EDGE EDGE EDGE
group		test region cold
9581 atoms in group test
group		test1 region hot
9574 atoms in group test1
compute		Thot all temp/region hot
compute         Tcold all temp/region cold
###########################################################################################

fix		NVT all nvt temp 300 300 0.05
thermo		1000
thermo_style	custom step temp
run		40000
Step Temp
    5001    300.28525
    6000    297.93645
    7000    297.74911
    8000     298.4291
    9000    301.23706
   10000    300.44061
   11000    300.36368
   12000    299.48863
   13000    301.36462
   14000    298.55465
   15000    299.20791
   16000    300.50534
   17000    300.40351
   18000    300.36775
   19000    299.38588
   20000    299.95033
   21000    298.96213
   22000    299.81942
   23000    300.48589
   24000    300.16298
   25000     299.7154
   26000    300.21073
   27000    299.45539
   28000    299.63457
   29000    300.34763
   30000    300.91453
   31000    300.14964
   32000    299.91573
   33000    299.99524
   34000    298.77947
   35000     300.6443
   36000    300.10465
   37000    299.43842
   38000    300.85317
   39000    299.98428
   40000    298.68689
   41000    299.73967
   42000    300.21969
   43000    300.58239
   44000    299.78284
   45000    300.08229
   45001    300.10913
Loop time of 4497.21 on 32 procs for 40000 steps with 193600 atoms

velocity	all scale $T
velocity	all scale 300
unfix		NVT

fix		NVE all nve
fix		hot all langevin 319.9225 319.9225 0.05 389516 tally yes
fix_modify	hot temp Thot
fix		cold all langevin 280.0775 280.0775 0.05 46579 tally yes
fix_modify	cold temp Tcold

thermo_style	custom step temp c_Thot c_Tcold f_hot f_cold
run		100000
Step Temp c_Thot c_Tcold f_hot f_cold
45001          300     297.1742    300.54636           -0           -0
Averages over the last 51 of 102 rows, steps 96000 to 145001:
Temp c_Thot c_Tcold f_hot f_cold
300.191 318.206 282.027 -3386.45 3375.34
Loop time of 11328.6 on 32 procs for 100000 steps with 193600 atoms

# thermal conductivity calculation
# reset langevin thermostats to zero energy accumulation
reset_timestep 0
thermo		$c
thermo		500000
compute		ke all ke/atom
variable	temp atom c_ke/1.5/8.617332478e-5
fix		hot all langevin 319.9225 319.9225 0.05 389516 tally yes
fix_modify	hot temp Thot
fix		cold all langevin 280.0775 280.0775 0.05 46579 tally yes
fix_modify	cold temp Tcold

compute		ch all chunk/atom bin/1d x lower 0.02 units reduced
fix		11 all ave/chunk 100 5000 500000 ch v_temp file sw_24.langevin
thermo_style	custom step temp c_Thot c_Tcold f_hot f_cold

run		500000
Step Temp c_Thot c_Tcold f_hot f_cold
0    299.51072    318.95392    281.00734           -0           -0
Loop time of 56636.7 on 32 procs for 500000 steps with 193600 atoms

clear
next		P
jump		Si.in
