# temperature
variable	T equal 300
#cold region temperature
#variable        tlo equal 275
variable        tlo equal 300-50*1.5938/4.0
#hot region temperature
variable        thi equal 300+50*1.5938/4.0

#time step (picoseconds)
variable	dt equal 0.0005 # 0.5 femtoseconds
#number of time steps for NPT
variable	tnpt equal 5000
#number of time steps for NVT
variable	tnvt equal 40000
#number of time steps for first NVE
variable	t1nve equal 100000
#number of time steps for second NVE
variable	t2nve equal 500000

################### Variable Based on LAMMPS Documentation ######################
variable	a equal 100
variable	c equal 500000
variable	b equal $c/$a
variable	b equal 500000/$a
variable	b equal 500000/100
variable	tdamp equal 0.0005*100
variable	pdamp equal 0.0005*1000

#----------------------------------------------------------------------------------------
# setup problem
dimension       3
boundary        p p p
atom_style      atomic
lattice 	diamond 5.43 origin 0.0 0.0 0.0 orient x 1 0 0 orient y 0 1 0 orient z 0 0 1
Lattice spacing in x,y,z = 5.43 5.43 5.43
region          0 block 0 $L 0 $W 0 $H units lattice side in
region          0 block 0 50 0 $W 0 $H units lattice side in
region          0 block 0 50 0 22 0 $H units lattice side in
region          0 block 0 50 0 22 0 22 units lattice side in
create_box      1 0
Created orthogonal box = (0 0 0) to (271.5 119.46 119.46)
create_atoms    1 region 0
Created 193600 atoms
mass		1 28.0855
#dump_modify	1 element Si

############################################
pair_style   sw
pair_coeff   * * Si26.sw Si
thermo		100
thermo_style custom step lx
min_style cg
minimize 0.0 1.0e-8 10000 100000
  update every 1 steps, delay 0 steps, check yes
Step Lx
       0        271.5
       1        271.5
Loop time of 0.0425582 on 32 procs for 1 steps with 193600 atoms

Minimization stats:
  Stopping criterion = force tolerance
  Energy initial, next-to-last, final =
  Force two-norm initial, final = 9.59911e-11 9.59201e-11
  Force max component initial, final = 5.59436e-13 5.62213e-13
  Final line search alpha, max atom move = 1 5.62213e-13
  Iterations, force evaluations = 1 2

timestep     0.0005
velocity 	all create $T 492845
velocity 	all create 300 492845

fix 		NPT all npt temp 300 300 0.05 iso 0.0 0.0 0.5
thermo		100
thermo_style custom step lx press
run		5000
Step Lx Press
1        271.5   -2792.2636
Averages over the last 26 of 52 rows, steps 2600 to 5001:
Lx Press
271.412 -7.23686
Loop time of 125.194 on 32 procs for 5000 steps with 193600 atoms

unfix		NPT
variable	length equal lx/5.43

################### Geometrical Parameters After Relaxation ###############################
# Thermostat_width
variable	TW equal 49.9851025142819/40
# Hot_Start
variable	hs equal 49.9851025142819/4-1.24962756285705
# Hot_End
variable	he equal 49.9851025142819/4+1.24962756285705
# Cold_Start
variable	cs equal 3*49.9851025142819/4-1.24962756285705
# Cold_End
variable	ce equal 3*49.9851025142819/4+1.24962756285705
###########################################################################################

################### Defining Thermostat ###################################################
region 		hot block 11.2466480657134 13.7459031914275 EDGE EDGE EDGE EDGE
region 		cold block 36.2391993228544 38.7384544485685 EDGE EDGE EDGE EDGE
group		test region cold
9555 atoms in group test
group		test1 region hot
9591 atoms in group test1
compute		Thot all temp/region hot
compute         Tcold all temp/region cold
###########################################################################################

fix		NVT all nvt temp 300 300 0.05
thermo		1000
thermo_style	custom step temp
run		40000
Step Temp
    5001    297.36645
    6000    296.20013
    7000     302.5659
    8000    301.65987
    9000    300.75194
   10000    299.55504
   11000    299.42384
   12000    299.92097
   13000    298.08616
   14000    299.66631
   15000      300.915
   16000    299.48012
   17000    299.29903
   18000     300.2497
   19000    298.65789
   20000    300.56063
   21000    299.93487
   22000    300.29903
   23000    300.83962
   24000    299.54723
   25000     300.0801
   26000    300.58161
   27000    300.60506
   28000    299.22437
   29000    300.70897
   30000    299.61278
   31000    300.56592
   32000    299.88588
   33000    300.12502
   34000    300.60725
   35000    298.83582
   36000    300.54185
   37000    300.49031
   38000    299.49085
   39000    299.28075
   40000    300.43526
   41000    299.20625
   42000    299.41399
   43000    301.01182
   44000    299.06536
   45000    299.65725
   45001     299.7189
Loop time of 1021.01 on 32 procs for 40000 steps with 193600 atoms

velocity	all scale $T
velocity	all scale 300
unfix		NVT

fix		NVE all nve
fix		hot all langevin 319.9225 319.9225 0.05 389516 tally yes
fix_modify	hot temp Thot
fix		cold all langevin 280.0775 280.0775 0.05 46579 tally yes
fix_modify	cold temp Tcold

thermo_style	custom step temp c_Thot c_Tcold f_hot f_cold
run		100000
Step Temp c_Thot c_Tcold f_hot f_cold
45001          300    297.57712    302.52438           -0           -0
Averages over the last 51 of 102 rows, steps 96000 to 145001:
Temp c_Thot c_Tcold f_hot f_cold
299.807 318.216 282.229 -2808.89 2824.06
Loop time of 2665.08 on 32 procs for 100000 steps with 193600 atoms

# thermal conductivity calculation
# reset langevin thermostats to zero energy accumulation
reset_timestep 0
thermo		$c
thermo		500000
compute		ke all ke/atom
variable	temp atom c_ke/1.5/8.617332478e-5
fix		hot all langevin 319.9225 319.9225 0.05 389516 tally yes
fix_modify	hot temp Thot
fix		cold all langevin 280.0775 280.0775 0.05 46579 tally yes
fix_modify	cold temp Tcold

compute		ch all chunk/atom bin/1d x lower 0.02 units reduced
fix		11 all ave/chunk 100 5000 500000 ch v_temp file sw_26.langevin
thermo_style	custom step temp c_Thot c_Tcold f_hot f_cold

run		500000
Step Temp c_Thot c_Tcold f_hot f_cold
0    299.31499    317.85764    278.37455           -0           -0
Loop time of 13417.1 on 32 procs for 500000 steps with 193600 atoms

clear
next		P
jump		Si.in
 units       metal
#----------------------------- User Input Variables --------------------------------------
################### Geometrical Parameters ###############################
variable	P index 25 26 27 28
variable	W equal 22
# Lattice Constant
variable	LC equal 5.43
# Length
variable	L equal 50
# Width
#variable	W equal 6
# Height
variable	H equal 22
################### Simulation Condition ###############################
#DT/DX=cte
variable	cte equal 1.5938
log         sw_27.log
