# temperature
variable	T equal 300
#cold region temperature
#variable        tlo equal 275
variable        tlo equal 300-50*1.5938/4.0
#hot region temperature
variable        thi equal 300+50*1.5938/4.0

#time step (picoseconds)
variable	dt equal 0.0005 # 0.5 femtoseconds
#number of time steps for NPT
variable	tnpt equal 5000
#number of time steps for NVT
variable	tnvt equal 40000
#number of time steps for first NVE
variable	t1nve equal 100000
#number of time steps for second NVE
variable	t2nve equal 500000

################### Variable Based on LAMMPS Documentation ######################
variable	a equal 100
variable	c equal 500000
variable	b equal $c/$a
variable	b equal 500000/$a
variable	b equal 500000/100
variable	tdamp equal 0.0005*100
variable	pdamp equal 0.0005*1000

#----------------------------------------------------------------------------------------
# setup problem
dimension       3
boundary        p p p
atom_style      atomic
lattice 	diamond 5.43 origin 0.0 0.0 0.0 orient x 1 0 0 orient y 0 1 0 orient z 0 0 1
Lattice spacing in x,y,z = 5.43 5.43 5.43
region          0 block 0 $L 0 $W 0 $H units lattice side in
region          0 block 0 50 0 $W 0 $H units lattice side in
region          0 block 0 50 0 22 0 $H units lattice side in
region          0 block 0 50 0 22 0 22 units lattice side in
create_box      1 0
Created orthogonal box = (0 0 0) to (271.5 119.46 119.46)
create_atoms    1 region 0
Created 193600 atoms
mass		1 28.0855
#dump_modify	1 element Si

############################################
pair_style   sw
pair_coeff   * * Si30.sw Si
thermo		100
thermo_style custom step lx
min_style cg
minimize 0.0 1.0e-8 10000 100000
  update every 1 steps, delay 0 steps, check yes
Step Lx
       0        271.5
       1        271.5
Loop time of 0.0425302 on 32 procs for 1 steps with 193600 atoms

Minimization stats:
  Stopping criterion = force tolerance
  Energy initial, next-to-last, final =
  Force two-norm initial, final = 7.60877e-11 7.60289e-11
  Force max component initial, final = 4.42813e-13 4.44755e-13
  Final line search alpha, max atom move = 1 4.44755e-13
  Iterations, force evaluations = 1 2

timestep     0.0005
velocity 	all create $T 492845
velocity 	all create 300 492845

fix 		NPT all npt temp 300 300 0.05 iso 0.0 0.0 0.5
thermo		100
thermo_style custom step lx press
run		5000
Step Lx Press
1        271.5   -64207.918
Averages over the last 26 of 52 rows, steps 2600 to 5001:
Lx Press
264.652 -0.920923
Loop time of 144.879 on 32 procs for 5000 steps with 193600 atoms

unfix		NPT
variable	length equal lx/5.43

################### Geometrical Parameters After Relaxation ###############################
# Thermostat_width
variable	TW equal 48.7386330756061/40
# Hot_Start
variable	hs equal 48.7386330756061/4-1.21846582689015
# Hot_End
variable	he equal 48.7386330756061/4+1.21846582689015
# Cold_Start
variable	cs equal 3*48.7386330756061/4-1.21846582689015
# Cold_End
variable	ce equal 3*48.7386330756061/4+1.21846582689015
###########################################################################################

################### Defining Thermostat ###################################################
region 		hot block 10.9661924420114 13.4031240957917 EDGE EDGE EDGE EDGE
region 		cold block 35.3355089798144 37.7724406335947 EDGE EDGE EDGE EDGE
group		test region cold
9583 atoms in group test
group		test1 region hot
9576 atoms in group test1
compute		Thot all temp/region hot
compute         Tcold all temp/region cold
###########################################################################################

fix		NVT all nvt temp 300 300 0.05
thermo		1000
thermo_style	custom step temp
run		40000
Step Temp
    5001    300.04226
    6000     304.0204
    7000    299.39843
    8000    299.86931
    9000    301.22757
   10000    301.99297
   11000    298.76152
   12000    301.38172
   13000    299.04948
   14000    299.48964
   15000    300.33744
   16000    301.35665
   17000    300.53214
   18000    300.73735
   19000     301.0679
   20000    299.34783
   21000    300.61002
   22000    299.07043
   23000    298.97436
   24000    300.46022
   25000     299.2833
   26000    299.93878
   27000    299.59187
   28000    301.01731
   29000    298.82715
   30000    300.25149
   31000    300.28865
   32000    299.68443
   33000    301.44929
   34000    301.03385
   35000     299.5341
   36000    300.42373
   37000    298.50758
   38000     298.6287
   39000    299.35788
   40000    300.18352
   41000    301.08735
   42000    299.58432
   43000    300.51094
   44000    299.80285
   45000    300.45912
   45001    300.47287
Loop time of 1177.89 on 32 procs for 40000 steps with 193600 atoms

velocity	all scale $T
velocity	all scale 300
unfix		NVT

fix		NVE all nve
fix		hot all langevin 319.9225 319.9225 0.05 389516 tally yes
fix_modify	hot temp Thot
fix		cold all langevin 280.0775 280.0775 0.05 46579 tally yes
fix_modify	cold temp Tcold

thermo_style	custom step temp c_Thot c_Tcold f_hot f_cold
run		100000
Step Temp c_Thot c_Tcold f_hot f_cold
45001          300    298.82845    299.96045           -0           -0
Averages over the last 51 of 102 rows, steps 96000 to 145001:
Temp c_Thot c_Tcold f_hot f_cold
299.511 318.315 281.295 -2825.68 2811.41
Loop time of 3044.35 on 32 procs for 100000 steps with 193600 atoms

# thermal conductivity calculation
# reset langevin thermostats to zero energy accumulation
reset_timestep 0
thermo		$c
thermo		500000
compute		ke all ke/atom
variable	temp atom c_ke/1.5/8.617332478e-5
fix		hot all langevin 319.9225 319.9225 0.05 389516 tally yes
fix_modify	hot temp Thot
fix		cold all langevin 280.0775 280.0775 0.05 46579 tally yes
fix_modify	cold temp Tcold

compute		ch all chunk/atom bin/1d x lower 0.02 units reduced
fix		11 all ave/chunk 100 5000 500000 ch v_temp file sw_30.langevin
thermo_style	custom step temp c_Thot c_Tcold f_hot f_cold

run		500000
Step Temp c_Thot c_Tcold f_hot f_cold
0    299.84123    320.38406    280.98172           -0           -0
Loop time of 15439.7 on 32 procs for 500000 steps with 193600 atoms

clear
next		P
jump		Si.in
 units       metal
#----------------------------- User Input Variables --------------------------------------
################### Geometrical Parameters ###############################
variable	P index 29 30 31 32
variable	W equal 22
# Lattice Constant
variable	LC equal 5.43
# Length
variable	L equal 50
# Width
#variable	W equal 6
# Height
variable	H equal 22
################### Simulation Condition ###############################
#DT/DX=cte
variable	cte equal 1.5938
log         sw_31.log
