# temperature
variable	T equal 300
#cold region temperature
#variable        tlo equal 275
variable        tlo equal 300-50*1.5938/4.0
#hot region temperature
variable        thi equal 300+50*1.5938/4.0

#time step (picoseconds)
variable	dt equal 0.0005 # 0.5 femtoseconds
#number of time steps for NPT
variable	tnpt equal 5000
#number of time steps for NVT
variable	tnvt equal 40000
#number of time steps for first NVE
variable	t1nve equal 100000
#number of time steps for second NVE
variable	t2nve equal 500000

################### Variable Based on LAMMPS Documentation ######################
variable	a equal 100
variable	c equal 500000
variable	b equal $c/$a
variable	b equal 500000/$a
variable	b equal 500000/100
variable	tdamp equal 0.0005*100
variable	pdamp equal 0.0005*1000

#----------------------------------------------------------------------------------------
# setup problem
dimension       3
boundary        p p p
atom_style      atomic
lattice 	diamond 5.43 origin 0.0 0.0 0.0 orient x 1 0 0 orient y 0 1 0 orient z 0 0 1
Lattice spacing in x,y,z = 5.43 5.43 5.43
region          0 block 0 $L 0 $W 0 $H units lattice side in
region          0 block 0 50 0 $W 0 $H units lattice side in
region          0 block 0 50 0 22 0 $H units lattice side in
region          0 block 0 50 0 22 0 22 units lattice side in
create_box      1 0
Created orthogonal box = (0 0 0) to (271.5 119.46 119.46)
create_atoms    1 region 0
Created 193600 atoms
mass		1 28.0855
#dump_modify	1 element Si

############################################
pair_style   sw
pair_coeff   * * Si36.sw Si
thermo		100
thermo_style custom step lx
min_style cg
minimize 0.0 1.0e-8 10000 100000
  update every 1 steps, delay 0 steps, check yes
Step Lx
       0        271.5
       1        271.5
Loop time of 0.0425646 on 32 procs for 1 steps with 193600 atoms

Minimization stats:
  Stopping criterion = force tolerance
  Energy initial, next-to-last, final =
  Force two-norm initial, final = 9.6156e-11 9.60857e-11
  Force max component initial, final = 5.59403e-13 5.61776e-13
  Final line search alpha, max atom move = 1 5.61776e-13
  Iterations, force evaluations = 1 2

timestep     0.0005
velocity 	all create $T 492845
velocity 	all create 300 492845

fix 		NPT all npt temp 300 300 0.05 iso 0.0 0.0 0.5
thermo		100
thermo_style custom step lx press
run		5000
Step Lx Press
1        271.5   -2795.2788
Averages over the last 26 of 52 rows, steps 2600 to 5001:
Lx Press
271.412 -7.23485
Loop time of 132.02 on 32 procs for 5000 steps with 193600 atoms

unfix		NPT
variable	length equal lx/5.43

################### Geometrical Parameters After Relaxation ###############################
# Thermostat_width
variable	TW equal 49.985053490618/40
# Hot_Start
variable	hs equal 49.985053490618/4-1.24962633726545
# Hot_End
variable	he equal 49.985053490618/4+1.24962633726545
# Cold_Start
variable	cs equal 3*49.985053490618/4-1.24962633726545
# Cold_End
variable	ce equal 3*49.985053490618/4+1.24962633726545
###########################################################################################

################### Defining Thermostat ###################################################
region 		hot block 11.246637035389 13.74588970992 EDGE EDGE EDGE EDGE
region 		cold block 36.2391637806981 38.738416455229 EDGE EDGE EDGE EDGE
group		test region cold
9554 atoms in group test
group		test1 region hot
9590 atoms in group test1
compute		Thot all temp/region hot
compute         Tcold all temp/region cold
###########################################################################################

fix		NVT all nvt temp 300 300 0.05
thermo		1000
thermo_style	custom step temp
run		40000
Step Temp
    5001     297.3683
    6000    296.19833
    7000    302.59448
    8000    301.63895
    9000    300.76321
   10000    299.54994
   11000    299.45657
   12000    299.99024
   13000    298.57386
   14000    299.95555
   15000     300.6748
   16000     299.4222
   17000    299.30066
   18000    300.28644
   19000    297.42327
   20000    300.73557
   21000    299.76638
   22000    300.99111
   23000    300.66436
   24000    299.97348
   25000    299.44063
   26000    300.87798
   27000    301.11551
   28000    299.16387
   29000    300.71991
   30000     299.6625
   31000    300.23799
   32000    300.01269
   33000     299.9096
   34000    300.53971
   35000    298.81646
   36000     300.5571
   37000    300.16482
   38000    299.41349
   39000    299.29506
   40000    300.32267
   41000    299.44162
   42000     299.3167
   43000    300.83396
   44000    299.35476
   45000    299.64844
   45001    299.70808
Loop time of 1073.75 on 32 procs for 40000 steps with 193600 atoms

velocity	all scale $T
velocity	all scale 300
unfix		NVT

fix		NVE all nve
fix		hot all langevin 319.9225 319.9225 0.05 389516 tally yes
fix_modify	hot temp Thot
fix		cold all langevin 280.0775 280.0775 0.05 46579 tally yes
fix_modify	cold temp Tcold

thermo_style	custom step temp c_Thot c_Tcold f_hot f_cold
run		100000
Step Temp c_Thot c_Tcold f_hot f_cold
45001          300    297.62005    302.52621           -0           -0
Averages over the last 51 of 102 rows, steps 96000 to 145001:
Temp c_Thot c_Tcold f_hot f_cold
299.882 318.221 281.798 -2815.91 2829.8
Loop time of 2842.02 on 32 procs for 100000 steps with 193600 atoms

# thermal conductivity calculation
# reset langevin thermostats to zero energy accumulation
reset_timestep 0
thermo		$c
thermo		500000
compute		ke all ke/atom
variable	temp atom c_ke/1.5/8.617332478e-5
fix		hot all langevin 319.9225 319.9225 0.05 389516 tally yes
fix_modify	hot temp Thot
fix		cold all langevin 280.0775 280.0775 0.05 46579 tally yes
fix_modify	cold temp Tcold

compute		ch all chunk/atom bin/1d x lower 0.02 units reduced
fix		11 all ave/chunk 100 5000 500000 ch v_temp file sw_36.langevin
thermo_style	custom step temp c_Thot c_Tcold f_hot f_cold

run		500000
Step Temp c_Thot c_Tcold f_hot f_cold
0    298.94656    317.74679    280.51987           -0           -0
Loop time of 14267.3 on 32 procs for 500000 steps with 193600 atoms

clear
next		P
jump		Si.in
