# temperature
variable	T equal 300
#cold region temperature
#variable        tlo equal 275
variable        tlo equal 300-50*1.5938/4.0
#hot region temperature
variable        thi equal 300+50*1.5938/4.0

#time step (picoseconds)
variable	dt equal 0.0005 # 0.5 femtoseconds
#number of time steps for NPT
variable	tnpt equal 5000
#number of time steps for NVT
variable	tnvt equal 40000
#number of time steps for first NVE
variable	t1nve equal 100000
#number of time steps for second NVE
variable	t2nve equal 500000

################### Variable Based on LAMMPS Documentation ######################
variable	a equal 100
variable	c equal 500000
variable	b equal $c/$a
variable	b equal 500000/$a
variable	b equal 500000/100
variable	tdamp equal 0.0005*100
variable	pdamp equal 0.0005*1000

#----------------------------------------------------------------------------------------
# setup problem
dimension       3
boundary        p p p
atom_style      atomic
lattice 	diamond 5.43 origin 0.0 0.0 0.0 orient x 1 0 0 orient y 0 1 0 orient z 0 0 1
Lattice spacing in x,y,z = 5.43 5.43 5.43
region          0 block 0 $L 0 $W 0 $H units lattice side in
region          0 block 0 50 0 $W 0 $H units lattice side in
region          0 block 0 50 0 22 0 $H units lattice side in
region          0 block 0 50 0 22 0 22 units lattice side in
create_box      1 0
Created orthogonal box = (0 0 0) to (271.5 119.46 119.46)
create_atoms    1 region 0
Created 193600 atoms
mass		1 28.0855
#dump_modify	1 element Si

############################################
pair_style   sw
pair_coeff   * * Si32.sw Si
thermo		100
thermo_style custom step lx
min_style cg
minimize 0.0 1.0e-8 10000 100000
  update every 1 steps, delay 0 steps, check yes
Step Lx
       0        271.5
       1        271.5
Loop time of 0.0416749 on 32 procs for 1 steps with 193600 atoms

Minimization stats:
  Stopping criterion = force tolerance
  Energy initial, next-to-last, final =
  Force two-norm initial, final = 6.95466e-11 6.95013e-11
  Force max component initial, final = 4.02629e-13 4.04426e-13
  Final line search alpha, max atom move = 1 4.04426e-13
  Iterations, force evaluations = 1 2

timestep     0.0005
velocity 	all create $T 492845
velocity 	all create 300 492845

fix 		NPT all npt temp 300 300 0.05 iso 0.0 0.0 0.5
thermo		100
thermo_style custom step lx press
run		5000
Step Lx Press
1        271.5   -83477.928
Averages over the last 26 of 52 rows, steps 2600 to 5001:
Lx Press
263.675 3.60534
Loop time of 76.4901 on 32 procs for 5000 steps with 193600 atoms

unfix		NPT
variable	length equal lx/5.43

################### Geometrical Parameters After Relaxation ###############################
# Thermostat_width
variable	TW equal 48.5570507077435/40
# Hot_Start
variable	hs equal 48.5570507077435/4-1.21392626769359
# Hot_End
variable	he equal 48.5570507077435/4+1.21392626769359
# Cold_Start
variable	cs equal 3*48.5570507077435/4-1.21392626769359
# Cold_End
variable	ce equal 3*48.5570507077435/4+1.21392626769359
###########################################################################################

################### Defining Thermostat ###################################################
region 		hot block 10.9253364092423 13.3531889446295 EDGE EDGE EDGE EDGE
region 		cold block 35.203861763114 37.6317142985012 EDGE EDGE EDGE EDGE
group		test region cold
9552 atoms in group test
group		test1 region hot
9540 atoms in group test1
compute		Thot all temp/region hot
compute         Tcold all temp/region cold
###########################################################################################

fix		NVT all nvt temp 300 300 0.05
thermo		1000
thermo_style	custom step temp
run		40000
Step Temp
    5001    296.67793
    6000    299.43074
    7000    300.40628
    8000    299.18877
    9000    300.41552
   10000    300.81755
   11000    300.00001
   12000    301.03342
   13000    300.96911
   14000    299.12918
   15000    301.47758
   16000    299.11735
   17000    298.56546
   18000    300.35816
   19000    299.26072
   20000    300.04791
   21000    299.74342
   22000    299.37435
   23000    299.20184
   24000     299.4785
   25000     299.7996
   26000     299.5088
   27000    299.63215
   28000    299.98279
   29000    300.21021
   30000    299.72015
   31000    298.67185
   32000    298.96521
   33000    300.58438
   34000    299.68593
   35000    300.90278
   36000    300.04271
   37000    299.59424
   38000    299.52842
   39000    299.45246
   40000    299.88568
   41000    301.19541
   42000    299.68374
   43000    299.31711
   44000    299.96845
   45000    298.97986
   45001    299.00334
Loop time of 575.222 on 32 procs for 40000 steps with 193600 atoms

velocity	all scale $T
velocity	all scale 300
unfix		NVT

fix		NVE all nve
fix		hot all langevin 319.9225 319.9225 0.05 389516 tally yes
fix_modify	hot temp Thot
fix		cold all langevin 280.0775 280.0775 0.05 46579 tally yes
fix_modify	cold temp Tcold

thermo_style	custom step temp c_Thot c_Tcold f_hot f_cold
run		100000
Step Temp c_Thot c_Tcold f_hot f_cold
45001          300    303.18819    298.23214           -0           -0
Averages over the last 51 of 102 rows, steps 96000 to 145001:
Temp c_Thot c_Tcold f_hot f_cold
300.215 319.792 281.037 -1660.75 1644.82
Loop time of 1756.18 on 32 procs for 100000 steps with 193600 atoms

# thermal conductivity calculation
# reset langevin thermostats to zero energy accumulation
reset_timestep 0
thermo		$c
thermo		500000
compute		ke all ke/atom
variable	temp atom c_ke/1.5/8.617332478e-5
fix		hot all langevin 319.9225 319.9225 0.05 389516 tally yes
fix_modify	hot temp Thot
fix		cold all langevin 280.0775 280.0775 0.05 46579 tally yes
fix_modify	cold temp Tcold

compute		ch all chunk/atom bin/1d x lower 0.02 units reduced
fix		11 all ave/chunk 100 5000 500000 ch v_temp file sw_32.langevin
thermo_style	custom step temp c_Thot c_Tcold f_hot f_cold

run		500000
Step Temp c_Thot c_Tcold f_hot f_cold
0    300.72674    318.83721    283.66992           -0           -0
Loop time of 8240.57 on 32 procs for 500000 steps with 193600 atoms

clear
next		P
jump		Si.in
