# temperature
variable	T equal 300
#cold region temperature
#variable        tlo equal 275
variable        tlo equal 300-50*1.5938/4.0
#hot region temperature
variable        thi equal 300+50*1.5938/4.0

#time step (picoseconds)
variable	dt equal 0.0005 # 0.5 femtoseconds
#number of time steps for NPT
variable	tnpt equal 5000
#number of time steps for NVT
variable	tnvt equal 40000
#number of time steps for first NVE
variable	t1nve equal 100000
#number of time steps for second NVE
variable	t2nve equal 500000

################### Variable Based on LAMMPS Documentation ######################
variable	a equal 100
variable	c equal 500000
variable	b equal $c/$a
variable	b equal 500000/$a
variable	b equal 500000/100
variable	tdamp equal 0.0005*100
variable	pdamp equal 0.0005*1000

#----------------------------------------------------------------------------------------
# setup problem
dimension       3
boundary        p p p
atom_style      atomic
lattice 	diamond 5.43 origin 0.0 0.0 0.0 orient x 1 0 0 orient y 0 1 0 orient z 0 0 1
Lattice spacing in x,y,z = 5.43 5.43 5.43
region          0 block 0 $L 0 $W 0 $H units lattice side in
region          0 block 0 50 0 $W 0 $H units lattice side in
region          0 block 0 50 0 22 0 $H units lattice side in
region          0 block 0 50 0 22 0 22 units lattice side in
create_box      1 0
Created orthogonal box = (0 0 0) to (271.5 119.46 119.46)
create_atoms    1 region 0
Created 193600 atoms
mass		1 28.0855
#dump_modify	1 element Si

############################################
pair_style   sw
pair_coeff   * * Si39.sw Si
thermo		100
thermo_style custom step lx
min_style cg
minimize 0.0 1.0e-8 10000 100000
  update every 1 steps, delay 0 steps, check yes
Step Lx
       0        271.5
       1        271.5
Loop time of 0.304148 on 32 procs for 1 steps with 193600 atoms

Minimization stats:
  Stopping criterion = force tolerance
  Energy initial, next-to-last, final =
  Force two-norm initial, final = 2.07122e-10 2.05644e-10
  Force max component initial, final = 1.395e-12 1.40488e-12
  Final line search alpha, max atom move = 1 1.40488e-12
  Iterations, force evaluations = 1 2

timestep     0.0005
velocity 	all create $T 492845
velocity 	all create 300 492845

fix 		NPT all npt temp 300 300 0.05 iso 0.0 0.0 0.5
thermo		100
thermo_style custom step lx press
run		5000
Step Lx Press
1        271.5    295762.53
Averages over the last 26 of 52 rows, steps 2600 to 5001:
Lx Press
283.269 -1.10957
Loop time of 533.066 on 32 procs for 5000 steps with 193600 atoms

unfix		NPT
variable	length equal lx/5.43

################### Geometrical Parameters After Relaxation ###############################
# Thermostat_width
variable	TW equal 52.1685217038318/40
# Hot_Start
variable	hs equal 52.1685217038318/4-1.30421304259579
# Hot_End
variable	he equal 52.1685217038318/4+1.30421304259579
# Cold_Start
variable	cs equal 3*52.1685217038318/4-1.30421304259579
# Cold_End
variable	ce equal 3*52.1685217038318/4+1.30421304259579
###########################################################################################

################### Defining Thermostat ###################################################
region 		hot block 11.7379173833622 14.3463434685537 EDGE EDGE EDGE EDGE
region 		cold block 37.8221782352781 40.4306043204696 EDGE EDGE EDGE EDGE
group		test region cold
9581 atoms in group test
group		test1 region hot
9575 atoms in group test1
compute		Thot all temp/region hot
compute         Tcold all temp/region cold
###########################################################################################

fix		NVT all nvt temp 300 300 0.05
thermo		1000
thermo_style	custom step temp
run		40000
Step Temp
    5001    300.28369
    6000    297.93605
    7000    297.75031
    8000    298.41681
    9000    301.20106
   10000    300.43608
   11000    300.39527
   12000     300.0355
   13000    301.09515
   14000    299.35643
   15000    299.40193
   16000    300.12152
   17000     300.1506
   18000    301.12954
   19000     299.6433
   20000    299.55353
   21000    299.58369
   22000    300.53981
   23000    299.93131
   24000    300.12442
   25000     299.9153
   26000    300.36663
   27000    300.98036
   28000    299.39786
   29000    301.07157
   30000     300.4213
   31000    300.83448
   32000    300.58272
   33000     300.0986
   34000    299.23621
   35000     300.4229
   36000    299.49041
   37000     300.6089
   38000     301.0678
   39000    299.71402
   40000    299.46384
   41000    299.90618
   42000    300.06895
   43000    300.36086
   44000    299.23626
   45000    300.35413
   45001    300.38694
Loop time of 4204.11 on 32 procs for 40000 steps with 193600 atoms

velocity	all scale $T
velocity	all scale 300
unfix		NVT

fix		NVE all nve
fix		hot all langevin 319.9225 319.9225 0.05 389516 tally yes
fix_modify	hot temp Thot
fix		cold all langevin 280.0775 280.0775 0.05 46579 tally yes
fix_modify	cold temp Tcold

thermo_style	custom step temp c_Thot c_Tcold f_hot f_cold
run		100000
Step Temp c_Thot c_Tcold f_hot f_cold
45001          300    297.35717    300.45961           -0           -0
Averages over the last 51 of 102 rows, steps 96000 to 145001:
Temp c_Thot c_Tcold f_hot f_cold
300.252 317.814 282.234 -3349.67 3340.86
Loop time of 10490 on 32 procs for 100000 steps with 193600 atoms

# thermal conductivity calculation
# reset langevin thermostats to zero energy accumulation
reset_timestep 0
thermo		$c
thermo		500000
compute		ke all ke/atom
variable	temp atom c_ke/1.5/8.617332478e-5
fix		hot all langevin 319.9225 319.9225 0.05 389516 tally yes
fix_modify	hot temp Thot
fix		cold all langevin 280.0775 280.0775 0.05 46579 tally yes
fix_modify	cold temp Tcold

compute		ch all chunk/atom bin/1d x lower 0.02 units reduced
fix		11 all ave/chunk 100 5000 500000 ch v_temp file sw_39.langevin
thermo_style	custom step temp c_Thot c_Tcold f_hot f_cold

run		500000
Step Temp c_Thot c_Tcold f_hot f_cold
0     299.7881    315.05836    279.46608           -0           -0
Loop time of 52812.5 on 32 procs for 500000 steps with 193600 atoms

clear
next		P
jump		Si.in
 units       metal
#----------------------------- User Input Variables --------------------------------------
################### Geometrical Parameters ###############################
variable	P index 37 38 39 40
variable	W equal 22
# Lattice Constant
variable	LC equal 5.43
# Length
variable	L equal 50
# Width
#variable	W equal 6
# Height
variable	H equal 22
################### Simulation Condition ###############################
#DT/DX=cte
variable	cte equal 1.5938
log         sw_40.log
