# temperature
variable	T equal 300
#cold region temperature
#variable        tlo equal 275
variable        tlo equal 300-50*1.5938/4.0
#hot region temperature
variable        thi equal 300+50*1.5938/4.0

#time step (picoseconds)
variable	dt equal 0.0005 # 0.5 femtoseconds
#number of time steps for NPT
variable	tnpt equal 5000
#number of time steps for NVT
variable	tnvt equal 40000
#number of time steps for first NVE
variable	t1nve equal 100000
#number of time steps for second NVE
variable	t2nve equal 500000

################### Variable Based on LAMMPS Documentation ######################
variable	a equal 100
variable	c equal 500000
variable	b equal $c/$a
variable	b equal 500000/$a
variable	b equal 500000/100
variable	tdamp equal 0.0005*100
variable	pdamp equal 0.0005*1000

#----------------------------------------------------------------------------------------
# setup problem
dimension       3
boundary        p p p
atom_style      atomic
lattice 	diamond 5.43 origin 0.0 0.0 0.0 orient x 1 0 0 orient y 0 1 0 orient z 0 0 1
Lattice spacing in x,y,z = 5.43 5.43 5.43
region          0 block 0 $L 0 $W 0 $H units lattice side in
region          0 block 0 50 0 $W 0 $H units lattice side in
region          0 block 0 50 0 22 0 $H units lattice side in
region          0 block 0 50 0 22 0 22 units lattice side in
create_box      1 0
Created orthogonal box = (0 0 0) to (271.5 119.46 119.46)
create_atoms    1 region 0
Created 193600 atoms
mass		1 28.0855
#dump_modify	1 element Si

############################################
pair_style   sw
pair_coeff   * * Si40.sw Si
thermo		100
thermo_style custom step lx
min_style cg
minimize 0.0 1.0e-8 10000 100000
  update every 1 steps, delay 0 steps, check yes
Step Lx
       0        271.5
       1        271.5
Loop time of 0.0419265 on 32 procs for 1 steps with 193600 atoms

Minimization stats:
  Stopping criterion = force tolerance
  Energy initial, next-to-last, final =
  Force two-norm initial, final = 7.6106e-11 7.60502e-11
  Force max component initial, final = 4.42753e-13 4.44922e-13
  Final line search alpha, max atom move = 1 4.44922e-13
  Iterations, force evaluations = 1 2

timestep     0.0005
velocity 	all create $T 492845
velocity 	all create 300 492845

fix 		NPT all npt temp 300 300 0.05 iso 0.0 0.0 0.5
thermo		100
thermo_style custom step lx press
run		5000
Step Lx Press
1        271.5   -64210.302
Averages over the last 26 of 52 rows, steps 2600 to 5001:
Lx Press
264.652 -0.919163
Loop time of 144.128 on 32 procs for 5000 steps with 193600 atoms

unfix		NPT
variable	length equal lx/5.43

################### Geometrical Parameters After Relaxation ###############################
# Thermostat_width
variable	TW equal 48.7385829758957/40
# Hot_Start
variable	hs equal 48.7385829758957/4-1.21846457439739
# Hot_End
variable	he equal 48.7385829758957/4+1.21846457439739
# Cold_Start
variable	cs equal 3*48.7385829758957/4-1.21846457439739
# Cold_End
variable	ce equal 3*48.7385829758957/4+1.21846457439739
###########################################################################################

################### Defining Thermostat ###################################################
region 		hot block 10.9661811695765 13.4031103183713 EDGE EDGE EDGE EDGE
region 		cold block 35.3354726575244 37.7724018063192 EDGE EDGE EDGE EDGE
group		test region cold
9583 atoms in group test
group		test1 region hot
9576 atoms in group test1
compute		Thot all temp/region hot
compute         Tcold all temp/region cold
###########################################################################################

fix		NVT all nvt temp 300 300 0.05
thermo		1000
thermo_style	custom step temp
run		40000
Step Temp
    5001    300.04077
    6000    304.01647
    7000     299.3962
    8000    299.86778
    9000    301.23056
   10000    302.00132
   11000    298.75992
   12000    301.40086
   13000    298.98082
   14000    299.45438
   15000    300.65193
   16000    301.54457
   17000    300.71786
   18000     300.6299
   19000    301.12085
   20000    299.14697
   21000    300.45425
   22000    299.05262
   23000     298.9032
   24000    300.36707
   25000    299.77683
   26000    299.67629
   27000    299.67007
   28000    300.95605
   29000     299.2408
   30000    299.93425
   31000    300.55583
   32000    300.80027
   33000    300.91604
   34000    301.18189
   35000    299.24935
   36000    300.48137
   37000    299.10692
   38000    298.78971
   39000     298.9905
   40000    300.01013
   41000    300.54398
   42000    299.66751
   43000    300.61602
   44000    299.39399
   45000    301.39488
   45001    301.40941
Loop time of 1128.23 on 32 procs for 40000 steps with 193600 atoms

velocity	all scale $T
velocity	all scale 300
unfix		NVT

fix		NVE all nve
fix		hot all langevin 319.9225 319.9225 0.05 389516 tally yes
fix_modify	hot temp Thot
fix		cold all langevin 280.0775 280.0775 0.05 46579 tally yes
fix_modify	cold temp Tcold

thermo_style	custom step temp c_Thot c_Tcold f_hot f_cold
run		100000
Step Temp c_Thot c_Tcold f_hot f_cold
45001          300    298.82135    299.90894           -0           -0
Averages over the last 51 of 102 rows, steps 96000 to 145001:
Temp c_Thot c_Tcold f_hot f_cold
300.022 318.247 281.345 -2732.02 2717.63
Loop time of 2968.23 on 32 procs for 100000 steps with 193600 atoms

# thermal conductivity calculation
# reset langevin thermostats to zero energy accumulation
reset_timestep 0
thermo		$c
thermo		500000
compute		ke all ke/atom
variable	temp atom c_ke/1.5/8.617332478e-5
fix		hot all langevin 319.9225 319.9225 0.05 389516 tally yes
fix_modify	hot temp Thot
fix		cold all langevin 280.0775 280.0775 0.05 46579 tally yes
fix_modify	cold temp Tcold

compute		ch all chunk/atom bin/1d x lower 0.02 units reduced
fix		11 all ave/chunk 100 5000 500000 ch v_temp file sw_40.langevin
thermo_style	custom step temp c_Thot c_Tcold f_hot f_cold

run		500000
Step Temp c_Thot c_Tcold f_hot f_cold
0    299.77124    316.58736    281.27925           -0           -0
Loop time of 14822.9 on 32 procs for 500000 steps with 193600 atoms

clear
next		P
jump		Si.in
