# temperature
variable	T equal 300
#cold region temperature
#variable        tlo equal 275
variable        tlo equal 300-50*1.5938/4.0
#hot region temperature
variable        thi equal 300+50*1.5938/4.0

#time step (picoseconds)
variable	dt equal 0.0005 # 0.5 femtoseconds
#number of time steps for NPT
variable	tnpt equal 5000
#number of time steps for NVT
variable	tnvt equal 40000
#number of time steps for first NVE
variable	t1nve equal 100000
#number of time steps for second NVE
variable	t2nve equal 500000

################### Variable Based on LAMMPS Documentation ######################
variable	a equal 100
variable	c equal 500000
variable	b equal $c/$a
variable	b equal 500000/$a
variable	b equal 500000/100
variable	tdamp equal 0.0005*100
variable	pdamp equal 0.0005*1000

#----------------------------------------------------------------------------------------
# setup problem
dimension       3
boundary        p p p
atom_style      atomic
lattice 	diamond 5.43 origin 0.0 0.0 0.0 orient x 1 0 0 orient y 0 1 0 orient z 0 0 1
Lattice spacing in x,y,z = 5.43 5.43 5.43
region          0 block 0 $L 0 $W 0 $H units lattice side in
region          0 block 0 50 0 $W 0 $H units lattice side in
region          0 block 0 50 0 22 0 $H units lattice side in
region          0 block 0 50 0 22 0 22 units lattice side in
create_box      1 0
Created orthogonal box = (0 0 0) to (271.5 119.46 119.46)
create_atoms    1 region 0
Created 193600 atoms
mass		1 28.0855
#dump_modify	1 element Si

############################################
pair_style   sw
pair_coeff   * * Si6.sw Si
thermo		100
thermo_style custom step lx
min_style cg
minimize 0.0 1.0e-8 10000 100000
  update every 1 steps, delay 0 steps, check yes
Step Lx
       0        271.5
       1        271.5
Loop time of 0.052369 on 32 procs for 1 steps with 193600 atoms

Minimization stats:
  Stopping criterion = force tolerance
  Energy initial, next-to-last, final =
  Force two-norm initial, final = 9.62688e-11 9.61978e-11
  Force max component initial, final = 5.59591e-13 5.62262e-13
  Final line search alpha, max atom move = 1 5.62262e-13
  Iterations, force evaluations = 1 2

timestep     0.0005
velocity 	all create $T 492845
velocity 	all create 300 492845

fix 		NPT all npt temp 300 300 0.05 iso 0.0 0.0 0.5
thermo		100
thermo_style custom step lx press
run		5000
Step Lx Press
1        271.5   -2795.2884
Averages over the last 26 of 52 rows, steps 2600 to 5001:
Lx Press
271.412 -7.23453
Loop time of 131.238 on 32 procs for 5000 steps with 193600 atoms

unfix		NPT
variable	length equal lx/5.43

################### Geometrical Parameters After Relaxation ###############################
# Thermostat_width
variable	TW equal 49.9850534978486/40
# Hot_Start
variable	hs equal 49.9850534978486/4-1.24962633744621
# Hot_End
variable	he equal 49.9850534978486/4+1.24962633744621
# Cold_Start
variable	cs equal 3*49.9850534978486/4-1.24962633744621
# Cold_End
variable	ce equal 3*49.9850534978486/4+1.24962633744621
###########################################################################################

################### Defining Thermostat ###################################################
region 		hot block 11.2466370370159 13.7458897119084 EDGE EDGE EDGE EDGE
region 		cold block 36.2391637859402 38.7384164608327 EDGE EDGE EDGE EDGE
group		test region cold
9554 atoms in group test
group		test1 region hot
9590 atoms in group test1
compute		Thot all temp/region hot
compute         Tcold all temp/region cold
###########################################################################################

fix		NVT all nvt temp 300 300 0.05
thermo		1000
thermo_style	custom step temp
run		40000
Step Temp
    5001    297.36712
    6000    296.19912
    7000    302.58609
    8000    301.64579
    9000    300.75741
   10000    299.55128
   11000    299.44612
   12000    299.95577
   13000    297.94964
   14000    299.42761
   15000     301.0139
   16000    299.49685
   17000    299.30487
   18000    300.25561
   19000    298.60666
   20000    300.83515
   21000    299.62472
   22000    300.22493
   23000    301.05656
   24000     299.9824
   25000    299.39124
   26000    301.07053
   27000     300.9101
   28000    299.26216
   29000    299.95517
   30000    299.65159
   31000     300.1639
   32000    300.00947
   33000    300.01787
   34000    301.05393
   35000    299.00952
   36000    300.99056
   37000    300.37342
   38000    299.65041
   39000    299.25434
   40000    299.75176
   41000    299.53753
   42000    299.12913
   43000    301.21003
   44000    299.17941
   45000    299.65194
   45001    299.71414
Loop time of 1033.17 on 32 procs for 40000 steps with 193600 atoms

velocity	all scale $T
velocity	all scale 300
unfix		NVT

fix		NVE all nve
fix		hot all langevin 319.9225 319.9225 0.05 389516 tally yes
fix_modify	hot temp Thot
fix		cold all langevin 280.0775 280.0775 0.05 46579 tally yes
fix_modify	cold temp Tcold

thermo_style	custom step temp c_Thot c_Tcold f_hot f_cold
run		100000
Step Temp c_Thot c_Tcold f_hot f_cold
45001          300    297.52645    302.51368           -0           -0
Averages over the last 51 of 102 rows, steps 96000 to 145001:
Temp c_Thot c_Tcold f_hot f_cold
300.006 317.889 282.369 -2785.45 2797.49
Loop time of 2755.91 on 32 procs for 100000 steps with 193600 atoms

# thermal conductivity calculation
# reset langevin thermostats to zero energy accumulation
reset_timestep 0
thermo		$c
thermo		500000
compute		ke all ke/atom
variable	temp atom c_ke/1.5/8.617332478e-5
fix		hot all langevin 319.9225 319.9225 0.05 389516 tally yes
fix_modify	hot temp Thot
fix		cold all langevin 280.0775 280.0775 0.05 46579 tally yes
fix_modify	cold temp Tcold

compute		ch all chunk/atom bin/1d x lower 0.02 units reduced
fix		11 all ave/chunk 100 5000 500000 ch v_temp file sw_6.langevin
thermo_style	custom step temp c_Thot c_Tcold f_hot f_cold

run		500000
Step Temp c_Thot c_Tcold f_hot f_cold
0    300.61418     319.7553    286.50072           -0           -0
Loop time of 14342.4 on 32 procs for 500000 steps with 193600 atoms

clear
next		P
jump		Si.in
 units       metal
#----------------------------- User Input Variables --------------------------------------
################### Geometrical Parameters ###############################
variable	P index 5 6 7 8
variable	W equal 22
# Lattice Constant
variable	LC equal 5.43
# Length
variable	L equal 50
# Width
#variable	W equal 6
# Height
variable	H equal 22
################### Simulation Condition ###############################
#DT/DX=cte
variable	cte equal 1.5938
log         sw_7.log
