# temperature
variable	T equal 300
#cold region temperature
#variable        tlo equal 275
variable        tlo equal 300-50*1.5938/4.0
#hot region temperature
variable        thi equal 300+50*1.5938/4.0

#time step (picoseconds)
variable	dt equal 0.0005 # 0.5 femtoseconds
#number of time steps for NPT
variable	tnpt equal 5000
#number of time steps for NVT
variable	tnvt equal 40000
#number of time steps for first NVE
variable	t1nve equal 100000
#number of time steps for second NVE
variable	t2nve equal 500000

################### Variable Based on LAMMPS Documentation ######################
variable	a equal 100
variable	c equal 500000
variable	b equal $c/$a
variable	b equal 500000/$a
variable	b equal 500000/100
variable	tdamp equal 0.0005*100
variable	pdamp equal 0.0005*1000

#----------------------------------------------------------------------------------------
# setup problem
dimension       3
boundary        p p p
atom_style      atomic
lattice 	diamond 5.43 origin 0.0 0.0 0.0 orient x 1 0 0 orient y 0 1 0 orient z 0 0 1
Lattice spacing in x,y,z = 5.43 5.43 5.43
region          0 block 0 $L 0 $W 0 $H units lattice side in
region          0 block 0 50 0 $W 0 $H units lattice side in
region          0 block 0 50 0 22 0 $H units lattice side in
region          0 block 0 50 0 22 0 22 units lattice side in
create_box      1 0
Created orthogonal box = (0 0 0) to (271.5 119.46 119.46)
create_atoms    1 region 0
Created 193600 atoms
mass		1 28.0855
#dump_modify	1 element Si

############################################
pair_style   sw
pair_coeff   * * Si8.sw Si
thermo		100
thermo_style custom step lx
min_style cg
minimize 0.0 1.0e-8 10000 100000
  update every 1 steps, delay 0 steps, check yes
Step Lx
       0        271.5
       1        271.5
Loop time of 0.0424544 on 32 procs for 1 steps with 193600 atoms

Minimization stats:
  Stopping criterion = force tolerance
  Energy initial, next-to-last, final =
  Force two-norm initial, final = 9.49859e-11 9.4919e-11
  Force max component initial, final = 5.53302e-13 5.55556e-13
  Final line search alpha, max atom move = 1 5.55556e-13
  Iterations, force evaluations = 1 2

timestep     0.0005
velocity 	all create $T 492845
velocity 	all create 300 492845

fix 		NPT all npt temp 300 300 0.05 iso 0.0 0.0 0.5
thermo		100
thermo_style custom step lx press
run		5000
Step Lx Press
1        271.5    32525.296
Averages over the last 26 of 52 rows, steps 2600 to 5001:
Lx Press
274.526 2.28979
Loop time of 116.342 on 32 procs for 5000 steps with 193600 atoms

unfix		NPT
variable	length equal lx/5.43

################### Geometrical Parameters After Relaxation ###############################
# Thermostat_width
variable	TW equal 50.5567842346973/40
# Hot_Start
variable	hs equal 50.5567842346973/4-1.26391960586743
# Hot_End
variable	he equal 50.5567842346973/4+1.26391960586743
# Cold_Start
variable	cs equal 3*50.5567842346973/4-1.26391960586743
# Cold_End
variable	ce equal 3*50.5567842346973/4+1.26391960586743
###########################################################################################

################### Defining Thermostat ###################################################
region 		hot block 11.3752764528069 13.9031156645418 EDGE EDGE EDGE EDGE
region 		cold block 36.6536685701555 39.1815077818904 EDGE EDGE EDGE EDGE
group		test region cold
9566 atoms in group test
group		test1 region hot
9584 atoms in group test1
compute		Thot all temp/region hot
compute         Tcold all temp/region cold
###########################################################################################

fix		NVT all nvt temp 300 300 0.05
thermo		1000
thermo_style	custom step temp
run		40000
Step Temp
    5001    299.71715
    6000    300.81964
    7000    302.59519
    8000     299.8824
    9000    298.28527
   10000    298.17981
   11000    300.55818
   12000    301.62656
   13000    299.20866
   14000    299.97573
   15000    300.21551
   16000    298.54218
   17000    301.71424
   18000    300.41145
   19000    301.29851
   20000    299.90042
   21000    299.06351
   22000    301.01359
   23000    300.34657
   24000    300.66512
   25000    299.46092
   26000    299.34616
   27000    299.77665
   28000    300.03879
   29000    300.66495
   30000    300.43324
   31000    299.71265
   32000    298.97281
   33000    300.37256
   34000    299.26394
   35000    299.70951
   36000    300.13672
   37000     300.2591
   38000    300.32914
   39000    299.98694
   40000    298.81996
   41000    300.40157
   42000    300.97239
   43000    300.02672
   44000    299.35239
   45000    300.09346
   45001    300.01101
Loop time of 874.617 on 32 procs for 40000 steps with 193600 atoms

velocity	all scale $T
velocity	all scale 300
unfix		NVT

fix		NVE all nve
fix		hot all langevin 319.9225 319.9225 0.05 389516 tally yes
fix_modify	hot temp Thot
fix		cold all langevin 280.0775 280.0775 0.05 46579 tally yes
fix_modify	cold temp Tcold

thermo_style	custom step temp c_Thot c_Tcold f_hot f_cold
run		100000
Step Temp c_Thot c_Tcold f_hot f_cold
45001          300    300.98787    303.31272           -0           -0
Averages over the last 51 of 102 rows, steps 96000 to 145001:
Temp c_Thot c_Tcold f_hot f_cold
300.001 319.145 281.84 -2566.75 2597.01
Loop time of 2303.68 on 32 procs for 100000 steps with 193600 atoms

# thermal conductivity calculation
# reset langevin thermostats to zero energy accumulation
reset_timestep 0
thermo		$c
thermo		500000
compute		ke all ke/atom
variable	temp atom c_ke/1.5/8.617332478e-5
fix		hot all langevin 319.9225 319.9225 0.05 389516 tally yes
fix_modify	hot temp Thot
fix		cold all langevin 280.0775 280.0775 0.05 46579 tally yes
fix_modify	cold temp Tcold

compute		ch all chunk/atom bin/1d x lower 0.02 units reduced
fix		11 all ave/chunk 100 5000 500000 ch v_temp file sw_8.langevin
thermo_style	custom step temp c_Thot c_Tcold f_hot f_cold

run		500000
Step Temp c_Thot c_Tcold f_hot f_cold
0    300.74627    321.61979    284.86933           -0           -0
Loop time of 12293.6 on 32 procs for 500000 steps with 193600 atoms

clear
next		P
jump		Si.in
