# temperature
variable	T equal 300
#cold region temperature
#variable        tlo equal 275
variable        tlo equal 300-50*1.5938/4.0
#hot region temperature
variable        thi equal 300+50*1.5938/4.0

#time step (picoseconds)
variable	dt equal 0.0005 # 0.5 femtoseconds
#number of time steps for NPT
variable	tnpt equal 5000
#number of time steps for NVT
variable	tnvt equal 40000
#number of time steps for first NVE
variable	t1nve equal 100000
#number of time steps for second NVE
variable	t2nve equal 500000

################### Variable Based on LAMMPS Documentation ######################
variable	a equal 100
variable	c equal 500000
variable	b equal $c/$a
variable	b equal 500000/$a
variable	b equal 500000/100
variable	tdamp equal 0.0005*100
variable	pdamp equal 0.0005*1000

#----------------------------------------------------------------------------------------
# setup problem
dimension       3
boundary        p p p
atom_style      atomic
lattice 	diamond 5.43 origin 0.0 0.0 0.0 orient x 1 0 0 orient y 0 1 0 orient z 0 0 1
Lattice spacing in x,y,z = 5.43 5.43 5.43
region          0 block 0 $L 0 $W 0 $H units lattice side in
region          0 block 0 50 0 $W 0 $H units lattice side in
region          0 block 0 50 0 22 0 $H units lattice side in
region          0 block 0 50 0 22 0 22 units lattice side in
create_box      1 0
Created orthogonal box = (0 0 0) to (271.5 119.46 119.46)
create_atoms    1 region 0
Created 193600 atoms
mass		1 28.0855
#dump_modify	1 element Si

############################################
pair_style   sw
pair_coeff   * * Si7.sw Si
thermo		100
thermo_style custom step lx
min_style cg
minimize 0.0 1.0e-8 10000 100000
  update every 1 steps, delay 0 steps, check yes
Step Lx
       0        271.5
       1        271.5
Loop time of 0.0414699 on 32 procs for 1 steps with 193600 atoms

Minimization stats:
  Stopping criterion = force tolerance
  Energy initial, next-to-last, final =
  Force two-norm initial, final = 7.76688e-11 7.76125e-11
  Force max component initial, final = 4.52299e-13 4.53693e-13
  Final line search alpha, max atom move = 1 4.53693e-13
  Iterations, force evaluations = 1 2

timestep     0.0005
velocity 	all create $T 492845
velocity 	all create 300 492845

fix 		NPT all npt temp 300 300 0.05 iso 0.0 0.0 0.5
thermo		100
thermo_style custom step lx press
run		5000
Step Lx Press
1        271.5   -55629.371
Averages over the last 26 of 52 rows, steps 2600 to 5001:
Lx Press
266.26 -0.66192
Loop time of 87.1101 on 32 procs for 5000 steps with 193600 atoms

unfix		NPT
variable	length equal lx/5.43

################### Geometrical Parameters After Relaxation ###############################
# Thermostat_width
variable	TW equal 49.0359187171838/40
# Hot_Start
variable	hs equal 49.0359187171838/4-1.22589796792959
# Hot_End
variable	he equal 49.0359187171838/4+1.22589796792959
# Cold_Start
variable	cs equal 3*49.0359187171838/4-1.22589796792959
# Cold_End
variable	ce equal 3*49.0359187171838/4+1.22589796792959
###########################################################################################

################### Defining Thermostat ###################################################
region 		hot block 11.0330817113664 13.4848776472255 EDGE EDGE EDGE EDGE
region 		cold block 35.5510410699583 38.0028370058174 EDGE EDGE EDGE EDGE
group		test region cold
9575 atoms in group test
group		test1 region hot
9580 atoms in group test1
compute		Thot all temp/region hot
compute         Tcold all temp/region cold
###########################################################################################

fix		NVT all nvt temp 300 300 0.05
thermo		1000
thermo_style	custom step temp
run		40000
Step Temp
    5001     302.3147
    6000    299.81892
    7000    301.73193
    8000    298.84666
    9000     300.4662
   10000    301.66079
   11000    298.20502
   12000    299.60229
   13000    300.47723
   14000    299.53702
   15000    300.96551
   16000    298.17242
   17000    298.79255
   18000    300.60394
   19000    299.84455
   20000    298.61003
   21000    299.76362
   22000     298.4403
   23000    299.57069
   24000    300.47544
   25000    300.49837
   26000    299.02561
   27000    299.42984
   28000    299.60252
   29000    300.94679
   30000    301.38048
   31000    300.57034
   32000    299.36299
   33000    300.43084
   34000    299.06804
   35000    300.42059
   36000     299.8679
   37000    300.55837
   38000    299.52497
   39000    301.19624
   40000    299.63474
   41000     299.6659
   42000    299.00421
   43000      300.635
   44000    300.70432
   45000    300.36495
   45001    300.33884
Loop time of 681.19 on 32 procs for 40000 steps with 193600 atoms

velocity	all scale $T
velocity	all scale 300
unfix		NVT

fix		NVE all nve
fix		hot all langevin 319.9225 319.9225 0.05 389516 tally yes
fix_modify	hot temp Thot
fix		cold all langevin 280.0775 280.0775 0.05 46579 tally yes
fix_modify	cold temp Tcold

thermo_style	custom step temp c_Thot c_Tcold f_hot f_cold
run		100000
Step Temp c_Thot c_Tcold f_hot f_cold
45001          300    300.25018     298.9847           -0           -0
Averages over the last 51 of 102 rows, steps 96000 to 145001:
Temp c_Thot c_Tcold f_hot f_cold
299.514 318.731 281.154 -2314.73 2355.99
Loop time of 1806.84 on 32 procs for 100000 steps with 193600 atoms

# thermal conductivity calculation
# reset langevin thermostats to zero energy accumulation
reset_timestep 0
thermo		$c
thermo		500000
compute		ke all ke/atom
variable	temp atom c_ke/1.5/8.617332478e-5
fix		hot all langevin 319.9225 319.9225 0.05 389516 tally yes
fix_modify	hot temp Thot
fix		cold all langevin 280.0775 280.0775 0.05 46579 tally yes
fix_modify	cold temp Tcold

compute		ch all chunk/atom bin/1d x lower 0.02 units reduced
fix		11 all ave/chunk 100 5000 500000 ch v_temp file sw_7.langevin
thermo_style	custom step temp c_Thot c_Tcold f_hot f_cold

run		500000
Step Temp c_Thot c_Tcold f_hot f_cold
0    299.23467    318.10366    275.14417           -0           -0
Loop time of 8707.53 on 32 procs for 500000 steps with 193600 atoms

clear
next		P
jump		Si.in
 units       metal
#----------------------------- User Input Variables --------------------------------------
################### Geometrical Parameters ###############################
variable	P index 5 6 7 8
variable	W equal 22
# Lattice Constant
variable	LC equal 5.43
# Length
variable	L equal 50
# Width
#variable	W equal 6
# Height
variable	H equal 22
################### Simulation Condition ###############################
#DT/DX=cte
variable	cte equal 1.5938
log         sw_8.log
