# temperature
variable	T equal 300
#cold region temperature
#variable        tlo equal 275
variable        tlo equal 300-50*1.5938/4.0
#hot region temperature
variable        thi equal 300+50*1.5938/4.0

#time step (picoseconds)
variable	dt equal 0.0005 # 0.5 femtoseconds
#number of time steps for NPT
variable	tnpt equal 5000
#number of time steps for NVT
variable	tnvt equal 40000
#number of time steps for first NVE
variable	t1nve equal 100000
#number of time steps for second NVE
variable	t2nve equal 500000

################### Variable Based on LAMMPS Documentation ######################
variable	a equal 100
variable	c equal 500000
variable	b equal $c/$a
variable	b equal 500000/$a
variable	b equal 500000/100
variable	tdamp equal 0.0005*100
variable	pdamp equal 0.0005*1000

#----------------------------------------------------------------------------------------
# setup problem
dimension       3
boundary        p p p
atom_style      atomic
lattice 	diamond 5.43 origin 0.0 0.0 0.0 orient x 1 0 0 orient y 0 1 0 orient z 0 0 1
Lattice spacing in x,y,z = 5.43 5.43 5.43
region          0 block 0 $L 0 $W 0 $H units lattice side in
region          0 block 0 50 0 $W 0 $H units lattice side in
region          0 block 0 50 0 22 0 $H units lattice side in
region          0 block 0 50 0 22 0 22 units lattice side in
create_box      1 0
Created orthogonal box = (0 0 0) to (271.5 119.46 119.46)
create_atoms    1 region 0
Created 193600 atoms
mass		1 28.0855
#dump_modify	1 element Si

############################################
pair_style   sw
pair_coeff   * * Si5.sw Si
thermo		100
thermo_style custom step lx
min_style cg
minimize 0.0 1.0e-8 10000 100000
  update every 1 steps, delay 0 steps, check yes
Step Lx
       0        271.5
       1        271.5
Loop time of 0.072032 on 32 procs for 1 steps with 193600 atoms

Minimization stats:
  Stopping criterion = force tolerance
  Energy initial, next-to-last, final =
  Force two-norm initial, final = 7.82294e-11 7.81751e-11
  Force max component initial, final = 4.54936e-13 4.56584e-13
  Final line search alpha, max atom move = 1 4.56584e-13
  Iterations, force evaluations = 1 2

timestep     0.0005
velocity 	all create $T 492845
velocity 	all create 300 492845

fix 		NPT all npt temp 300 300 0.05 iso 0.0 0.0 0.5
thermo		100
thermo_style custom step lx press
run		5000
Step Lx Press
1        271.5    -60514.32
Averages over the last 26 of 52 rows, steps 2600 to 5001:
Lx Press
266.053 4.1987
Loop time of 88.2265 on 32 procs for 5000 steps with 193600 atoms

unfix		NPT
variable	length equal lx/5.43

################### Geometrical Parameters After Relaxation ###############################
# Thermostat_width
variable	TW equal 48.9959168811747/40
# Hot_Start
variable	hs equal 48.9959168811747/4-1.22489792202937
# Hot_End
variable	he equal 48.9959168811747/4+1.22489792202937
# Cold_Start
variable	cs equal 3*48.9959168811747/4-1.22489792202937
# Cold_End
variable	ce equal 3*48.9959168811747/4+1.22489792202937
###########################################################################################

################### Defining Thermostat ###################################################
region 		hot block 11.0240812982643 13.473877142323 EDGE EDGE EDGE EDGE
region 		cold block 35.5220397388517 37.9718355829104 EDGE EDGE EDGE EDGE
group		test region cold
9579 atoms in group test
group		test1 region hot
9542 atoms in group test1
compute		Thot all temp/region hot
compute         Tcold all temp/region cold
###########################################################################################

fix		NVT all nvt temp 300 300 0.05
thermo		1000
thermo_style	custom step temp
run		40000
Step Temp
    5001    299.89539
    6000    302.02887
    7000    299.92698
    8000    298.97819
    9000    299.71152
   10000    298.70672
   11000    300.51865
   12000    299.30498
   13000    299.43259
   14000    300.06019
   15000    301.35633
   16000    300.75084
   17000     297.6753
   18000     299.1827
   19000    299.59991
   20000    300.32254
   21000    299.10735
   22000    300.09588
   23000    300.21863
   24000    299.01383
   25000    300.77634
   26000    299.13775
   27000    300.22917
   28000    299.81726
   29000    300.02755
   30000    301.43551
   31000     301.0195
   32000    300.39139
   33000    299.19842
   34000    300.66201
   35000    300.39426
   36000    301.28173
   37000    299.84093
   38000    301.00751
   39000    297.95985
   40000    300.27972
   41000    299.00519
   42000    300.11722
   43000    301.18649
   44000    299.33501
   45000    299.64824
   45001    299.68521
Loop time of 671.03 on 32 procs for 40000 steps with 193600 atoms

velocity	all scale $T
velocity	all scale 300
unfix		NVT

fix		NVE all nve
fix		hot all langevin 319.9225 319.9225 0.05 389516 tally yes
fix_modify	hot temp Thot
fix		cold all langevin 280.0775 280.0775 0.05 46579 tally yes
fix_modify	cold temp Tcold

thermo_style	custom step temp c_Thot c_Tcold f_hot f_cold
run		100000
Step Temp c_Thot c_Tcold f_hot f_cold
45001          300    304.73049     298.6543           -0           -0
Averages over the last 51 of 102 rows, steps 96000 to 145001:
Temp c_Thot c_Tcold f_hot f_cold
299.733 319.151 281.336 -2075.96 2081.43
Loop time of 1838.05 on 32 procs for 100000 steps with 193600 atoms

# thermal conductivity calculation
# reset langevin thermostats to zero energy accumulation
reset_timestep 0
thermo		$c
thermo		500000
compute		ke all ke/atom
variable	temp atom c_ke/1.5/8.617332478e-5
fix		hot all langevin 319.9225 319.9225 0.05 389516 tally yes
fix_modify	hot temp Thot
fix		cold all langevin 280.0775 280.0775 0.05 46579 tally yes
fix_modify	cold temp Tcold

compute		ch all chunk/atom bin/1d x lower 0.02 units reduced
fix		11 all ave/chunk 100 5000 500000 ch v_temp file sw_5.langevin
thermo_style	custom step temp c_Thot c_Tcold f_hot f_cold

run		500000
Step Temp c_Thot c_Tcold f_hot f_cold
0    298.89554    315.77376    279.49906           -0           -0
Loop time of 9135.38 on 32 procs for 500000 steps with 193600 atoms

clear
next		P
jump		Si.in
 units       metal
#----------------------------- User Input Variables --------------------------------------
################### Geometrical Parameters ###############################
variable	P index 5 6 7 8
variable	W equal 22
# Lattice Constant
variable	LC equal 5.43
# Length
variable	L equal 50
# Width
#variable	W equal 6
# Height
variable	H equal 22
################### Simulation Condition ###############################
#DT/DX=cte
variable	cte equal 1.5938
log         sw_6.log
