# temperature
variable	T equal 300
#cold region temperature
#variable        tlo equal 275
variable        tlo equal 300-50*1.5938/4.0
#hot region temperature
variable        thi equal 300+50*1.5938/4.0

#time step (picoseconds)
variable	dt equal 0.0005 # 0.5 femtoseconds
#number of time steps for NPT
variable	tnpt equal 5000
#number of time steps for NVT
variable	tnvt equal 40000
#number of time steps for first NVE
variable	t1nve equal 100000
#number of time steps for second NVE
variable	t2nve equal 500000

################### Variable Based on LAMMPS Documentation ######################
variable	a equal 100
variable	c equal 500000
variable	b equal $c/$a
variable	b equal 500000/$a
variable	b equal 500000/100
variable	tdamp equal 0.0005*100
variable	pdamp equal 0.0005*1000

#----------------------------------------------------------------------------------------
# setup problem
dimension       3
boundary        p p p
atom_style      atomic
lattice 	diamond 5.43 origin 0.0 0.0 0.0 orient x 1 0 0 orient y 0 1 0 orient z 0 0 1
Lattice spacing in x,y,z = 5.43 5.43 5.43
region          0 block 0 $L 0 $W 0 $H units lattice side in
region          0 block 0 50 0 $W 0 $H units lattice side in
region          0 block 0 50 0 22 0 $H units lattice side in
region          0 block 0 50 0 22 0 22 units lattice side in
create_box      1 0
Created orthogonal box = (0 0 0) to (271.5 119.46 119.46)
create_atoms    1 region 0
Created 193600 atoms
mass		1 28.0855
#dump_modify	1 element Si

############################################
pair_style   sw
pair_coeff   * * Si8.sw Si
thermo		100
thermo_style custom step lx
min_style cg
minimize 0.0 1.0e-8 10000 100000
  update every 1 steps, delay 0 steps, check yes
Step Lx
       0        271.5
       1        271.5
Loop time of 0.0544232 on 32 procs for 1 steps with 193600 atoms

Minimization stats:
  Stopping criterion = force tolerance
  Energy initial, next-to-last, final =
  Force two-norm initial, final = 8.35429e-11 8.34845e-11
  Force max component initial, final = 4.84738e-13 4.87554e-13
  Final line search alpha, max atom move = 1 4.87554e-13
  Iterations, force evaluations = 1 2

timestep     0.0005
velocity 	all create $T 492845
velocity 	all create 300 492845

fix 		NPT all npt temp 300 300 0.05 iso 0.0 0.0 0.5
thermo		100
thermo_style custom step lx press
run		5000
Step Lx Press
1        271.5   -86567.018
Averages over the last 26 of 52 rows, steps 2600 to 5001:
Lx Press
263.992 1.55195
Loop time of 84.4863 on 32 procs for 5000 steps with 193600 atoms

unfix		NPT
variable	length equal lx/5.43

################### Geometrical Parameters After Relaxation ###############################
# Thermostat_width
variable	TW equal 48.6163809644604/40
# Hot_Start
variable	hs equal 48.6163809644604/4-1.21540952411151
# Hot_End
variable	he equal 48.6163809644604/4+1.21540952411151
# Cold_Start
variable	cs equal 3*48.6163809644604/4-1.21540952411151
# Cold_End
variable	ce equal 3*48.6163809644604/4+1.21540952411151
###########################################################################################

################### Defining Thermostat ###################################################
region 		hot block 10.9386857170036 13.3695047652266 EDGE EDGE EDGE EDGE
region 		cold block 35.2468761992338 37.6776952474568 EDGE EDGE EDGE EDGE
group		test region cold
9574 atoms in group test
group		test1 region hot
9569 atoms in group test1
compute		Thot all temp/region hot
compute         Tcold all temp/region cold
###########################################################################################

fix		NVT all nvt temp 300 300 0.05
thermo		1000
thermo_style	custom step temp
run		40000
Step Temp
    5001    300.51338
    6000     299.0209
    7000    299.52767
    8000    302.70974
    9000    299.61204
   10000    300.05133
   11000    301.14038
   12000    301.79433
   13000    300.01337
   14000    299.25884
   15000    299.75688
   16000    298.93555
   17000    300.85414
   18000    298.88421
   19000    298.36456
   20000    299.05111
   21000    299.97979
   22000    300.38834
   23000     298.8227
   24000    301.40915
   25000    298.50552
   26000    299.91205
   27000    298.89755
   28000    302.65147
   29000    300.28089
   30000    299.15574
   31000    300.04772
   32000    299.92743
   33000    299.84293
   34000    299.38905
   35000    300.04146
   36000    300.45003
   37000    298.88385
   38000    300.00525
   39000    299.61486
   40000    299.54588
   41000    300.33885
   42000    300.29146
   43000    301.23247
   44000    300.04514
   45000    299.93342
   45001    299.90413
Loop time of 616.85 on 32 procs for 40000 steps with 193600 atoms

velocity	all scale $T
velocity	all scale 300
unfix		NVT

fix		NVE all nve
fix		hot all langevin 319.9225 319.9225 0.05 389516 tally yes
fix_modify	hot temp Thot
fix		cold all langevin 280.0775 280.0775 0.05 46579 tally yes
fix_modify	cold temp Tcold

thermo_style	custom step temp c_Thot c_Tcold f_hot f_cold
run		100000
Step Temp c_Thot c_Tcold f_hot f_cold
45001          300     301.9695    299.42106           -0           -0
Averages over the last 51 of 102 rows, steps 96000 to 145001:
Temp c_Thot c_Tcold f_hot f_cold
299.73 318.727 281.505 -2445.51 2459.98
Loop time of 1640.22 on 32 procs for 100000 steps with 193600 atoms

# thermal conductivity calculation
# reset langevin thermostats to zero energy accumulation
reset_timestep 0
thermo		$c
thermo		500000
compute		ke all ke/atom
variable	temp atom c_ke/1.5/8.617332478e-5
fix		hot all langevin 319.9225 319.9225 0.05 389516 tally yes
fix_modify	hot temp Thot
fix		cold all langevin 280.0775 280.0775 0.05 46579 tally yes
fix_modify	cold temp Tcold

compute		ch all chunk/atom bin/1d x lower 0.02 units reduced
fix		11 all ave/chunk 100 5000 500000 ch v_temp file sw_8.langevin
thermo_style	custom step temp c_Thot c_Tcold f_hot f_cold

run		500000
Step Temp c_Thot c_Tcold f_hot f_cold
0    300.37604    319.37693     281.8953           -0           -0
Loop time of 8915.03 on 32 procs for 500000 steps with 193600 atoms

clear
next		P
jump		Si.in
