# temperature
variable	T equal 300
#cold region temperature
#variable        tlo equal 275
variable        tlo equal 300-50*1.5938/4.0
#hot region temperature
variable        thi equal 300+50*1.5938/4.0

#time step (picoseconds)
variable	dt equal 0.0005 # 0.5 femtoseconds
#number of time steps for NPT
variable	tnpt equal 5000
#number of time steps for NVT
variable	tnvt equal 40000
#number of time steps for first NVE
variable	t1nve equal 100000
#number of time steps for second NVE
variable	t2nve equal 500000

################### Variable Based on LAMMPS Documentation ######################
variable	a equal 100
variable	c equal 500000
variable	b equal $c/$a
variable	b equal 500000/$a
variable	b equal 500000/100
variable	tdamp equal 0.0005*100
variable	pdamp equal 0.0005*1000

#----------------------------------------------------------------------------------------
# setup problem
dimension       3
boundary        p p p
atom_style      atomic
lattice 	diamond 5.43 origin 0.0 0.0 0.0 orient x 1 0 0 orient y 0 1 0 orient z 0 0 1
Lattice spacing in x,y,z = 5.43 5.43 5.43
region          0 block 0 $L 0 $W 0 $H units lattice side in
region          0 block 0 50 0 $W 0 $H units lattice side in
region          0 block 0 50 0 22 0 $H units lattice side in
region          0 block 0 50 0 22 0 22 units lattice side in
create_box      1 0
Created orthogonal box = (0 0 0) to (271.5 119.46 119.46)
create_atoms    1 region 0
Created 193600 atoms
mass		1 28.0855
#dump_modify	1 element Si

############################################
pair_style   sw
pair_coeff   * * Si4.sw Si
thermo		100
thermo_style custom step lx
min_style cg
minimize 0.0 1.0e-8 10000 100000
  update every 1 steps, delay 0 steps, check yes
Step Lx
       0        271.5
       1        271.5
Loop time of 0.0407548 on 32 procs for 1 steps with 193600 atoms

Minimization stats:
  Stopping criterion = force tolerance
  Energy initial, next-to-last, final =
  Force two-norm initial, final = 8.26231e-11 8.25666e-11
  Force max component initial, final = 4.78684e-13 4.81226e-13
  Final line search alpha, max atom move = 1 4.81226e-13
  Iterations, force evaluations = 1 2

timestep     0.0005
velocity 	all create $T 492845
velocity 	all create 300 492845

fix 		NPT all npt temp 300 300 0.05 iso 0.0 0.0 0.5
thermo		100
thermo_style custom step lx press
run		5000
Step Lx Press
1        271.5   -80268.344
Averages over the last 26 of 52 rows, steps 2600 to 5001:
Lx Press
264.541 0.722622
Loop time of 79.0981 on 32 procs for 5000 steps with 193600 atoms

unfix		NPT
variable	length equal lx/5.43

################### Geometrical Parameters After Relaxation ###############################
# Thermostat_width
variable	TW equal 48.717668785404/40
# Hot_Start
variable	hs equal 48.717668785404/4-1.2179417196351
# Hot_End
variable	he equal 48.717668785404/4+1.2179417196351
# Cold_Start
variable	cs equal 3*48.717668785404/4-1.2179417196351
# Cold_End
variable	ce equal 3*48.717668785404/4+1.2179417196351
###########################################################################################

################### Defining Thermostat ###################################################
region 		hot block 10.9614754767159 13.3973589159861 EDGE EDGE EDGE EDGE
region 		cold block 35.3203098694179 37.7561933086881 EDGE EDGE EDGE EDGE
group		test region cold
9563 atoms in group test
group		test1 region hot
9574 atoms in group test1
compute		Thot all temp/region hot
compute         Tcold all temp/region cold
###########################################################################################

fix		NVT all nvt temp 300 300 0.05
thermo		1000
thermo_style	custom step temp
run		40000
Step Temp
    5001    297.04365
    6000     297.9535
    7000     301.2225
    8000    298.75483
    9000    300.15306
   10000    302.15586
   11000    300.41347
   12000    300.28084
   13000    300.00656
   14000    299.30933
   15000    297.67781
   16000    300.12391
   17000    299.79962
   18000    299.25623
   19000    299.03542
   20000    299.33815
   21000    301.18604
   22000    299.31816
   23000    299.64332
   24000    299.98102
   25000    299.65484
   26000    299.59284
   27000    299.42419
   28000    300.44572
   29000    300.05708
   30000    299.90422
   31000    300.52198
   32000    300.55057
   33000    301.04621
   34000    299.70628
   35000    299.17673
   36000    298.78681
   37000    298.85765
   38000    298.89657
   39000    299.71934
   40000    301.21619
   41000    301.04241
   42000    300.08318
   43000    300.40647
   44000    300.11586
   45000    299.64156
   45001     299.6672
Loop time of 616.427 on 32 procs for 40000 steps with 193600 atoms

velocity	all scale $T
velocity	all scale 300
unfix		NVT

fix		NVE all nve
fix		hot all langevin 319.9225 319.9225 0.05 389516 tally yes
fix_modify	hot temp Thot
fix		cold all langevin 280.0775 280.0775 0.05 46579 tally yes
fix_modify	cold temp Tcold

thermo_style	custom step temp c_Thot c_Tcold f_hot f_cold
run		100000
Step Temp c_Thot c_Tcold f_hot f_cold
45001          300    299.70678     299.9434           -0           -0
Averages over the last 51 of 102 rows, steps 96000 to 145001:
Temp c_Thot c_Tcold f_hot f_cold
299.532 318.652 280.981 -2341.77 2367.68
Loop time of 1683.67 on 32 procs for 100000 steps with 193600 atoms

# thermal conductivity calculation
# reset langevin thermostats to zero energy accumulation
reset_timestep 0
thermo		$c
thermo		500000
compute		ke all ke/atom
variable	temp atom c_ke/1.5/8.617332478e-5
fix		hot all langevin 319.9225 319.9225 0.05 389516 tally yes
fix_modify	hot temp Thot
fix		cold all langevin 280.0775 280.0775 0.05 46579 tally yes
fix_modify	cold temp Tcold

compute		ch all chunk/atom bin/1d x lower 0.02 units reduced
fix		11 all ave/chunk 100 5000 500000 ch v_temp file sw_4.langevin
thermo_style	custom step temp c_Thot c_Tcold f_hot f_cold

run		500000
Step Temp c_Thot c_Tcold f_hot f_cold
0    299.15595    320.84657    279.34073           -0           -0
Loop time of 8407.49 on 32 procs for 500000 steps with 193600 atoms

clear
next		P
jump		Si.in
