# temperature
variable	T equal 300
#cold region temperature
#variable        tlo equal 275
variable        tlo equal 300-50*1.5938/4.0
#hot region temperature
variable        thi equal 300+50*1.5938/4.0

#time step (picoseconds)
variable	dt equal 0.0005 # 0.5 femtoseconds
#number of time steps for NPT
variable	tnpt equal 5000
#number of time steps for NVT
variable	tnvt equal 40000
#number of time steps for first NVE
variable	t1nve equal 100000
#number of time steps for second NVE
variable	t2nve equal 500000

################### Variable Based on LAMMPS Documentation ######################
variable	a equal 100
variable	c equal 500000
variable	b equal $c/$a
variable	b equal 500000/$a
variable	b equal 500000/100
variable	tdamp equal 0.0005*100
variable	pdamp equal 0.0005*1000

#----------------------------------------------------------------------------------------
# setup problem
dimension       3
boundary        p p p
atom_style      atomic
lattice 	diamond 5.43 origin 0.0 0.0 0.0 orient x 1 0 0 orient y 0 1 0 orient z 0 0 1
Lattice spacing in x,y,z = 5.43 5.43 5.43
region          0 block 0 $L 0 $W 0 $H units lattice side in
region          0 block 0 50 0 $W 0 $H units lattice side in
region          0 block 0 50 0 22 0 $H units lattice side in
region          0 block 0 50 0 22 0 22 units lattice side in
create_box      1 0
Created orthogonal box = (0 0 0) to (271.5 119.46 119.46)
create_atoms    1 region 0
Created 193600 atoms
mass		1 28.0855
#dump_modify	1 element Si

############################################
pair_style   sw
pair_coeff   * * Si6.sw Si
thermo		100
thermo_style custom step lx
min_style cg
minimize 0.0 1.0e-8 10000 100000
  update every 1 steps, delay 0 steps, check yes
Step Lx
       0        271.5
       1        271.5
Loop time of 0.0381007 on 32 procs for 1 steps with 193600 atoms

Minimization stats:
  Stopping criterion = force tolerance
  Energy initial, next-to-last, final =
  Force two-norm initial, final = 6.17033e-11 6.16623e-11
  Force max component initial, final = 3.56837e-13 3.58047e-13
  Final line search alpha, max atom move = 1 3.58047e-13
  Iterations, force evaluations = 1 2

timestep     0.0005
velocity 	all create $T 492845
velocity 	all create 300 492845

fix 		NPT all npt temp 300 300 0.05 iso 0.0 0.0 0.5
thermo		100
thermo_style custom step lx press
run		5000
Step Lx Press
1        271.5   -129588.44
Averages over the last 26 of 52 rows, steps 2600 to 5001:
Lx Press
258.301 -0.530893
Loop time of 74.2677 on 32 procs for 5000 steps with 193600 atoms

unfix		NPT
variable	length equal lx/5.43

################### Geometrical Parameters After Relaxation ###############################
# Thermostat_width
variable	TW equal 47.5695514050444/40
# Hot_Start
variable	hs equal 47.5695514050444/4-1.18923878512611
# Hot_End
variable	he equal 47.5695514050444/4+1.18923878512611
# Cold_Start
variable	cs equal 3*47.5695514050444/4-1.18923878512611
# Cold_End
variable	ce equal 3*47.5695514050444/4+1.18923878512611
###########################################################################################

################### Defining Thermostat ###################################################
region 		hot block 10.703149066135 13.0816266363872 EDGE EDGE EDGE EDGE
region 		cold block 34.4879247686572 36.8664023389094 EDGE EDGE EDGE EDGE
group		test region cold
9572 atoms in group test
group		test1 region hot
9558 atoms in group test1
compute		Thot all temp/region hot
compute         Tcold all temp/region cold
###########################################################################################

fix		NVT all nvt temp 300 300 0.05
thermo		1000
thermo_style	custom step temp
run		40000
Step Temp
    5001    301.38497
    6000    302.86073
    7000    301.96686
    8000     299.1882
    9000     299.8007
   10000    299.77558
   11000    297.90616
   12000    298.34249
   13000    300.94396
   14000    299.46394
   15000    299.95159
   16000    301.21866
   17000    299.10249
   18000    299.19564
   19000    300.54705
   20000    298.28531
   21000    300.42824
   22000    299.05639
   23000    299.67206
   24000    298.48202
   25000    300.35562
   26000    300.31707
   27000    300.26401
   28000    300.41703
   29000    299.96212
   30000    299.81189
   31000    299.63502
   32000    298.95767
   33000     300.0528
   34000    300.83672
   35000    299.33186
   36000     299.7505
   37000    300.13011
   38000    299.55411
   39000    299.32371
   40000    299.72742
   41000    299.18425
   42000    300.57407
   43000    300.16724
   44000    300.21918
   45000    300.15428
   45001    300.14636
Loop time of 567.397 on 32 procs for 40000 steps with 193600 atoms

velocity	all scale $T
velocity	all scale 300
unfix		NVT

fix		NVE all nve
fix		hot all langevin 319.9225 319.9225 0.05 389516 tally yes
fix_modify	hot temp Thot
fix		cold all langevin 280.0775 280.0775 0.05 46579 tally yes
fix_modify	cold temp Tcold

thermo_style	custom step temp c_Thot c_Tcold f_hot f_cold
run		100000
Step Temp c_Thot c_Tcold f_hot f_cold
45001          300    297.24142    298.42147           -0           -0
Averages over the last 51 of 102 rows, steps 96000 to 145001:
Temp c_Thot c_Tcold f_hot f_cold
299.8 319.052 280.869 -1766.89 1800.69
Loop time of 1561.9 on 32 procs for 100000 steps with 193600 atoms

# thermal conductivity calculation
# reset langevin thermostats to zero energy accumulation
reset_timestep 0
thermo		$c
thermo		500000
compute		ke all ke/atom
variable	temp atom c_ke/1.5/8.617332478e-5
fix		hot all langevin 319.9225 319.9225 0.05 389516 tally yes
fix_modify	hot temp Thot
fix		cold all langevin 280.0775 280.0775 0.05 46579 tally yes
fix_modify	cold temp Tcold

compute		ch all chunk/atom bin/1d x lower 0.02 units reduced
fix		11 all ave/chunk 100 5000 500000 ch v_temp file sw_6.langevin
thermo_style	custom step temp c_Thot c_Tcold f_hot f_cold

run		500000
Step Temp c_Thot c_Tcold f_hot f_cold
0    299.40253    317.06088    277.93697           -0           -0
Loop time of 8329.5 on 32 procs for 500000 steps with 193600 atoms

clear
next		P
jump		Si.in
 units       metal
#----------------------------- User Input Variables --------------------------------------
################### Geometrical Parameters ###############################
variable	P index 5 6 7 8
variable	W equal 22
# Lattice Constant
variable	LC equal 5.43
# Length
variable	L equal 50
# Width
#variable	W equal 6
# Height
variable	H equal 22
################### Simulation Condition ###############################
#DT/DX=cte
variable	cte equal 1.5938
log         sw_7.log
