# temperature
variable	T equal 300
#cold region temperature
#variable        tlo equal 275
variable        tlo equal 300-50*1.5938/4.0
#hot region temperature
variable        thi equal 300+50*1.5938/4.0

#time step (picoseconds)
variable	dt equal 0.0005 # 0.5 femtoseconds
#number of time steps for NPT
variable	tnpt equal 5000
#number of time steps for NVT
variable	tnvt equal 40000
#number of time steps for first NVE
variable	t1nve equal 100000
#number of time steps for second NVE
variable	t2nve equal 500000

################### Variable Based on LAMMPS Documentation ######################
variable	a equal 100
variable	c equal 500000
variable	b equal $c/$a
variable	b equal 500000/$a
variable	b equal 500000/100
variable	tdamp equal 0.0005*100
variable	pdamp equal 0.0005*1000

#----------------------------------------------------------------------------------------
# setup problem
dimension       3
boundary        p p p
atom_style      atomic
lattice 	diamond 5.43 origin 0.0 0.0 0.0 orient x 1 0 0 orient y 0 1 0 orient z 0 0 1
Lattice spacing in x,y,z = 5.43 5.43 5.43
region          0 block 0 $L 0 $W 0 $H units lattice side in
region          0 block 0 50 0 $W 0 $H units lattice side in
region          0 block 0 50 0 22 0 $H units lattice side in
region          0 block 0 50 0 22 0 22 units lattice side in
create_box      1 0
Created orthogonal box = (0 0 0) to (271.5 119.46 119.46)
create_atoms    1 region 0
Created 193600 atoms
mass		1 28.0855
#dump_modify	1 element Si

############################################
pair_style   sw
pair_coeff   * * Si2.sw Si
thermo		100
thermo_style custom step lx
min_style cg
minimize 0.0 1.0e-8 10000 100000
  update every 1 steps, delay 0 steps, check yes
Step Lx
       0        271.5
       1        271.5
Loop time of 0.0414033 on 32 procs for 1 steps with 193600 atoms

Minimization stats:
  Stopping criterion = force tolerance
  Energy initial, next-to-last, final =
  Force two-norm initial, final = 9.59544e-11 9.58813e-11
  Force max component initial, final = 5.62078e-13 5.64296e-13
  Final line search alpha, max atom move = 1 5.64296e-13
  Iterations, force evaluations = 1 2

timestep     0.0005
velocity 	all create $T 492845
velocity 	all create 300 492845

fix 		NPT all npt temp 300 300 0.05 iso 0.0 0.0 0.5
thermo		100
thermo_style custom step lx press
run		5000
Step Lx Press
1        271.5   -3758.3056
Averages over the last 26 of 52 rows, steps 2600 to 5001:
Lx Press
271.377 2.79496
Loop time of 122.405 on 32 procs for 5000 steps with 193600 atoms

unfix		NPT
variable	length equal lx/5.43

################### Geometrical Parameters After Relaxation ###############################
# Thermostat_width
variable	TW equal 49.9762733601235/40
# Hot_Start
variable	hs equal 49.9762733601235/4-1.24940683400309
# Hot_End
variable	he equal 49.9762733601235/4+1.24940683400309
# Cold_Start
variable	cs equal 3*49.9762733601235/4-1.24940683400309
# Cold_End
variable	ce equal 3*49.9762733601235/4+1.24940683400309
###########################################################################################

################### Defining Thermostat ###################################################
region 		hot block 11.2446615060278 13.743475174034 EDGE EDGE EDGE EDGE
region 		cold block 36.2327981860895 38.7316118540957 EDGE EDGE EDGE EDGE
group		test region cold
9534 atoms in group test
group		test1 region hot
9549 atoms in group test1
compute		Thot all temp/region hot
compute         Tcold all temp/region cold
###########################################################################################

fix		NVT all nvt temp 300 300 0.05
thermo		1000
thermo_style	custom step temp
run		40000
Step Temp
    5001    298.45979
    6000    296.66831
    7000    301.95664
    8000    299.08954
    9000    298.67429
   10000    299.67833
   11000     300.8942
   12000    298.78509
   13000     300.8038
   14000     300.7126
   15000    299.99578
   16000    300.85355
   17000    301.02094
   18000    300.11799
   19000    299.85392
   20000    301.05476
   21000    300.32248
   22000    300.33029
   23000    299.57275
   24000    300.19797
   25000    300.71771
   26000    301.01783
   27000    298.34503
   28000    300.16209
   29000    298.67836
   30000    300.59051
   31000    298.95022
   32000    300.65968
   33000    300.17434
   34000    299.76704
   35000     300.3033
   36000    300.70823
   37000    299.75413
   38000    300.30525
   39000    299.70671
   40000    300.42633
   41000    301.49118
   42000    301.71009
   43000    298.70632
   44000    299.47185
   45000    299.56138
   45001     299.5819
Loop time of 1025.35 on 32 procs for 40000 steps with 193600 atoms

velocity	all scale $T
velocity	all scale 300
unfix		NVT

fix		NVE all nve
fix		hot all langevin 319.9225 319.9225 0.05 389516 tally yes
fix_modify	hot temp Thot
fix		cold all langevin 280.0775 280.0775 0.05 46579 tally yes
fix_modify	cold temp Tcold

thermo_style	custom step temp c_Thot c_Tcold f_hot f_cold
run		100000
Step Temp c_Thot c_Tcold f_hot f_cold
45001          300    302.91602    301.93268           -0           -0
Averages over the last 51 of 102 rows, steps 96000 to 145001:
Temp c_Thot c_Tcold f_hot f_cold
300.062 317.886 282.114 -3459.7 3454.66
Loop time of 2717.54 on 32 procs for 100000 steps with 193600 atoms

# thermal conductivity calculation
# reset langevin thermostats to zero energy accumulation
reset_timestep 0
thermo		$c
thermo		500000
compute		ke all ke/atom
variable	temp atom c_ke/1.5/8.617332478e-5
fix		hot all langevin 319.9225 319.9225 0.05 389516 tally yes
fix_modify	hot temp Thot
fix		cold all langevin 280.0775 280.0775 0.05 46579 tally yes
fix_modify	cold temp Tcold

compute		ch all chunk/atom bin/1d x lower 0.02 units reduced
fix		11 all ave/chunk 100 5000 500000 ch v_temp file sw_2.langevin
thermo_style	custom step temp c_Thot c_Tcold f_hot f_cold

run		500000
Step Temp c_Thot c_Tcold f_hot f_cold
0    300.18491    314.68857    283.48671           -0           -0
Loop time of 13344.4 on 32 procs for 500000 steps with 193600 atoms

clear
next		P
jump		Si.in
 units       metal
#----------------------------- User Input Variables --------------------------------------
################### Geometrical Parameters ###############################
variable	P index 1 2 3 4
variable	W equal 22
# Lattice Constant
variable	LC equal 5.43
# Length
variable	L equal 50
# Width
#variable	W equal 6
# Height
variable	H equal 22
################### Simulation Condition ###############################
#DT/DX=cte
variable	cte equal 1.5938
log         sw_3.log
