# temperature
variable	T equal 300
#cold region temperature
#variable        tlo equal 275
variable        tlo equal 300-50*1.5938/4.0
#hot region temperature
variable        thi equal 300+50*1.5938/4.0

#time step (picoseconds)
variable	dt equal 0.0005 # 0.5 femtoseconds
#number of time steps for NPT
variable	tnpt equal 5000
#number of time steps for NVT
variable	tnvt equal 40000
#number of time steps for first NVE
variable	t1nve equal 100000
#number of time steps for second NVE
variable	t2nve equal 500000

################### Variable Based on LAMMPS Documentation ######################
variable	a equal 100
variable	c equal 500000
variable	b equal $c/$a
variable	b equal 500000/$a
variable	b equal 500000/100
variable	tdamp equal 0.0005*100
variable	pdamp equal 0.0005*1000

#----------------------------------------------------------------------------------------
# setup problem
dimension       3
boundary        p p p
atom_style      atomic
lattice 	diamond 5.43 origin 0.0 0.0 0.0 orient x 1 0 0 orient y 0 1 0 orient z 0 0 1
Lattice spacing in x,y,z = 5.43 5.43 5.43
region          0 block 0 $L 0 $W 0 $H units lattice side in
region          0 block 0 50 0 $W 0 $H units lattice side in
region          0 block 0 50 0 22 0 $H units lattice side in
region          0 block 0 50 0 22 0 22 units lattice side in
create_box      1 0
Created orthogonal box = (0 0 0) to (271.5 119.46 119.46)
create_atoms    1 region 0
Created 193600 atoms
mass		1 28.0855
#dump_modify	1 element Si

############################################
pair_style   sw
pair_coeff   * * Si19.sw Si
thermo		100
thermo_style custom step lx
min_style cg
minimize 0.0 1.0e-8 10000 100000
  update every 1 steps, delay 0 steps, check yes
Step Lx
       0        271.5
       1        271.5
Loop time of 0.0417051 on 32 procs for 1 steps with 193600 atoms

Minimization stats:
  Stopping criterion = force tolerance
  Energy initial, next-to-last, final =
  Force two-norm initial, final = 8.54869e-11 8.54262e-11
  Force max component initial, final = 4.95017e-13 4.97768e-13
  Final line search alpha, max atom move = 1 4.97768e-13
  Iterations, force evaluations = 1 2

timestep     0.0005
velocity 	all create $T 492845
velocity 	all create 300 492845

fix 		NPT all npt temp 300 300 0.05 iso 0.0 0.0 0.5
thermo		100
thermo_style custom step lx press
run		5000
Step Lx Press
1        271.5   -65571.779
Averages over the last 26 of 52 rows, steps 2600 to 5001:
Lx Press
266.006 0.777191
Loop time of 90.9653 on 32 procs for 5000 steps with 193600 atoms

unfix		NPT
variable	length equal lx/5.43

################### Geometrical Parameters After Relaxation ###############################
# Thermostat_width
variable	TW equal 48.9875369360843/40
# Hot_Start
variable	hs equal 48.9875369360843/4-1.22468842340211
# Hot_End
variable	he equal 48.9875369360843/4+1.22468842340211
# Cold_Start
variable	cs equal 3*48.9875369360843/4-1.22468842340211
# Cold_End
variable	ce equal 3*48.9875369360843/4+1.22468842340211
###########################################################################################

################### Defining Thermostat ###################################################
region 		hot block 11.022195810619 13.4715726574232 EDGE EDGE EDGE EDGE
region 		cold block 35.5159642786611 37.9653411254653 EDGE EDGE EDGE EDGE
group		test region cold
9550 atoms in group test
group		test1 region hot
9577 atoms in group test1
compute		Thot all temp/region hot
compute         Tcold all temp/region cold
###########################################################################################

fix		NVT all nvt temp 300 300 0.05
thermo		1000
thermo_style	custom step temp
run		40000
Step Temp
    5001    296.97365
    6000    302.27037
    7000    300.30035
    8000    298.71304
    9000    300.52077
   10000    298.11444
   11000    299.16752
   12000    299.45848
   13000    299.11793
   14000    299.28275
   15000    301.74112
   16000    299.08715
   17000    299.27776
   18000    299.34822
   19000    298.71081
   20000    298.81938
   21000    299.83593
   22000     300.5194
   23000    300.76534
   24000    299.80088
   25000    299.69519
   26000    300.13839
   27000    299.33526
   28000    299.62389
   29000    299.91361
   30000    300.36869
   31000    299.39935
   32000    299.11433
   33000    300.18756
   34000    299.09333
   35000    300.83409
   36000    300.10221
   37000    301.79852
   38000    300.79956
   39000    299.47249
   40000    299.53728
   41000    300.07308
   42000    301.80987
   43000    300.43668
   44000    300.94035
   45000    299.17828
   45001     299.1561
Loop time of 699.213 on 32 procs for 40000 steps with 193600 atoms

velocity	all scale $T
velocity	all scale 300
unfix		NVT

fix		NVE all nve
fix		hot all langevin 319.9225 319.9225 0.05 389516 tally yes
fix_modify	hot temp Thot
fix		cold all langevin 280.0775 280.0775 0.05 46579 tally yes
fix_modify	cold temp Tcold

thermo_style	custom step temp c_Thot c_Tcold f_hot f_cold
run		100000
Step Temp c_Thot c_Tcold f_hot f_cold
45001          300     294.6859    303.89986           -0           -0
Averages over the last 51 of 102 rows, steps 96000 to 145001:
Temp c_Thot c_Tcold f_hot f_cold
299.503 318.607 281.215 -2283.35 2326.18
Loop time of 1893.27 on 32 procs for 100000 steps with 193600 atoms

# thermal conductivity calculation
# reset langevin thermostats to zero energy accumulation
reset_timestep 0
thermo		$c
thermo		500000
compute		ke all ke/atom
variable	temp atom c_ke/1.5/8.617332478e-5
fix		hot all langevin 319.9225 319.9225 0.05 389516 tally yes
fix_modify	hot temp Thot
fix		cold all langevin 280.0775 280.0775 0.05 46579 tally yes
fix_modify	cold temp Tcold

compute		ch all chunk/atom bin/1d x lower 0.02 units reduced
fix		11 all ave/chunk 100 5000 500000 ch v_temp file sw_19.langevin
thermo_style	custom step temp c_Thot c_Tcold f_hot f_cold

run		500000
Step Temp c_Thot c_Tcold f_hot f_cold
0    299.70485    315.78673     280.4934           -0           -0
Loop time of 9482.01 on 32 procs for 500000 steps with 193600 atoms

clear
next		P
jump		Si.in
 units       metal
#----------------------------- User Input Variables --------------------------------------
################### Geometrical Parameters ###############################
variable	P index 17 18 19 20
variable	W equal 22
# Lattice Constant
variable	LC equal 5.43
# Length
variable	L equal 50
# Width
#variable	W equal 6
# Height
variable	H equal 22
################### Simulation Condition ###############################
#DT/DX=cte
variable	cte equal 1.5938
log         sw_20.log
