# temperature
variable	T equal 300
#cold region temperature
#variable        tlo equal 275
variable        tlo equal 300-50*1.5938/4.0
#hot region temperature
variable        thi equal 300+50*1.5938/4.0

#time step (picoseconds)
variable	dt equal 0.0005 # 0.5 femtoseconds
#number of time steps for NPT
variable	tnpt equal 5000
#number of time steps for NVT
variable	tnvt equal 40000
#number of time steps for first NVE
variable	t1nve equal 100000
#number of time steps for second NVE
variable	t2nve equal 500000

################### Variable Based on LAMMPS Documentation ######################
variable	a equal 100
variable	c equal 500000
variable	b equal $c/$a
variable	b equal 500000/$a
variable	b equal 500000/100
variable	tdamp equal 0.0005*100
variable	pdamp equal 0.0005*1000

#----------------------------------------------------------------------------------------
# setup problem
dimension       3
boundary        p p p
atom_style      atomic
lattice 	diamond 5.43 origin 0.0 0.0 0.0 orient x 1 0 0 orient y 0 1 0 orient z 0 0 1
Lattice spacing in x,y,z = 5.43 5.43 5.43
region          0 block 0 $L 0 $W 0 $H units lattice side in
region          0 block 0 50 0 $W 0 $H units lattice side in
region          0 block 0 50 0 22 0 $H units lattice side in
region          0 block 0 50 0 22 0 22 units lattice side in
create_box      1 0
Created orthogonal box = (0 0 0) to (271.5 119.46 119.46)
create_atoms    1 region 0
Created 193600 atoms
mass		1 28.0855
#dump_modify	1 element Si

############################################
pair_style   sw
pair_coeff   * * Si11.sw Si
thermo		100
thermo_style custom step lx
min_style cg
minimize 0.0 1.0e-8 10000 100000
  update every 1 steps, delay 0 steps, check yes
Step Lx
       0        271.5
       1        271.5
Loop time of 0.0422534 on 32 procs for 1 steps with 193600 atoms

Minimization stats:
  Stopping criterion = force tolerance
  Energy initial, next-to-last, final =
  Force two-norm initial, final = 8.76252e-11 8.7562e-11
  Force max component initial, final = 5.08635e-13 5.11424e-13
  Final line search alpha, max atom move = 1 5.11424e-13
  Iterations, force evaluations = 1 2

timestep     0.0005
velocity 	all create $T 492845
velocity 	all create 300 492845

fix 		NPT all npt temp 300 300 0.05 iso 0.0 0.0 0.5
thermo		100
thermo_style custom step lx press
run		5000
Step Lx Press
1        271.5   -10399.111
Averages over the last 26 of 52 rows, steps 2600 to 5001:
Lx Press
270.658 2.80214
Loop time of 116.016 on 32 procs for 5000 steps with 193600 atoms

unfix		NPT
variable	length equal lx/5.43

################### Geometrical Parameters After Relaxation ###############################
# Thermostat_width
variable	TW equal 49.843588381108/40
# Hot_Start
variable	hs equal 49.843588381108/4-1.2460897095277
# Hot_End
variable	he equal 49.843588381108/4+1.2460897095277
# Cold_Start
variable	cs equal 3*49.843588381108/4-1.2460897095277
# Cold_End
variable	ce equal 3*49.843588381108/4+1.2460897095277
###########################################################################################

################### Defining Thermostat ###################################################
region 		hot block 11.2148073857493 13.7069868048047 EDGE EDGE EDGE EDGE
region 		cold block 36.1366015763033 38.6287809953587 EDGE EDGE EDGE EDGE
group		test region cold
9574 atoms in group test
group		test1 region hot
9565 atoms in group test1
compute		Thot all temp/region hot
compute         Tcold all temp/region cold
###########################################################################################

fix		NVT all nvt temp 300 300 0.05
thermo		1000
thermo_style	custom step temp
run		40000
Step Temp
    5001    298.61441
    6000    299.21629
    7000    298.25928
    8000    297.77361
    9000    302.02485
   10000    297.55079
   11000    299.26281
   12000    299.73343
   13000    300.74753
   14000    301.48831
   15000    298.08634
   16000     299.1315
   17000    301.88597
   18000    302.35935
   19000    299.28717
   20000    300.51613
   21000    300.06094
   22000    300.36592
   23000    299.42815
   24000    299.02672
   25000     299.3927
   26000    299.29144
   27000    300.99077
   28000    300.09261
   29000    300.57886
   30000    299.46273
   31000    300.09157
   32000    298.61186
   33000    299.63432
   34000    299.90382
   35000    300.45587
   36000    300.60847
   37000    300.67239
   38000    299.91709
   39000    300.98959
   40000    300.81478
   41000    299.89869
   42000    300.43423
   43000     299.8419
   44000    299.67012
   45000    300.57614
   45001    300.53948
Loop time of 947.11 on 32 procs for 40000 steps with 193600 atoms

velocity	all scale $T
velocity	all scale 300
unfix		NVT

fix		NVE all nve
fix		hot all langevin 319.9225 319.9225 0.05 389516 tally yes
fix_modify	hot temp Thot
fix		cold all langevin 280.0775 280.0775 0.05 46579 tally yes
fix_modify	cold temp Tcold

thermo_style	custom step temp c_Thot c_Tcold f_hot f_cold
run		100000
Step Temp c_Thot c_Tcold f_hot f_cold
45001          300    299.22239    300.63217           -0           -0
Averages over the last 51 of 102 rows, steps 96000 to 145001:
Temp c_Thot c_Tcold f_hot f_cold
299.468 318.753 281.024 -2184.02 2194.74
Loop time of 2473.88 on 32 procs for 100000 steps with 193600 atoms

# thermal conductivity calculation
# reset langevin thermostats to zero energy accumulation
reset_timestep 0
thermo		$c
thermo		500000
compute		ke all ke/atom
variable	temp atom c_ke/1.5/8.617332478e-5
fix		hot all langevin 319.9225 319.9225 0.05 389516 tally yes
fix_modify	hot temp Thot
fix		cold all langevin 280.0775 280.0775 0.05 46579 tally yes
fix_modify	cold temp Tcold

compute		ch all chunk/atom bin/1d x lower 0.02 units reduced
fix		11 all ave/chunk 100 5000 500000 ch v_temp file sw_11.langevin
thermo_style	custom step temp c_Thot c_Tcold f_hot f_cold

run		500000
Step Temp c_Thot c_Tcold f_hot f_cold
0    298.56754    317.76372    282.14503           -0           -0
Loop time of 12458.9 on 32 procs for 500000 steps with 193600 atoms

clear
next		P
jump		Si.in
 units       metal
#----------------------------- User Input Variables --------------------------------------
################### Geometrical Parameters ###############################
variable	P index 9 10 11 12
variable	W equal 22
# Lattice Constant
variable	LC equal 5.43
# Length
variable	L equal 50
# Width
#variable	W equal 6
# Height
variable	H equal 22
################### Simulation Condition ###############################
#DT/DX=cte
variable	cte equal 1.5938
log         sw_12.log
