# temperature
variable	T equal 300
#cold region temperature
#variable        tlo equal 275
variable        tlo equal 300-50*1.5938/4.0
#hot region temperature
variable        thi equal 300+50*1.5938/4.0

#time step (picoseconds)
variable	dt equal 0.0005 # 0.5 femtoseconds
#number of time steps for NPT
variable	tnpt equal 5000
#number of time steps for NVT
variable	tnvt equal 40000
#number of time steps for first NVE
variable	t1nve equal 100000
#number of time steps for second NVE
variable	t2nve equal 500000

################### Variable Based on LAMMPS Documentation ######################
variable	a equal 100
variable	c equal 500000
variable	b equal $c/$a
variable	b equal 500000/$a
variable	b equal 500000/100
variable	tdamp equal 0.0005*100
variable	pdamp equal 0.0005*1000

#----------------------------------------------------------------------------------------
# setup problem
dimension       3
boundary        p p p
atom_style      atomic
lattice 	diamond 5.43 origin 0.0 0.0 0.0 orient x 1 0 0 orient y 0 1 0 orient z 0 0 1
Lattice spacing in x,y,z = 5.43 5.43 5.43
region          0 block 0 $L 0 $W 0 $H units lattice side in
region          0 block 0 50 0 $W 0 $H units lattice side in
region          0 block 0 50 0 22 0 $H units lattice side in
region          0 block 0 50 0 22 0 22 units lattice side in
create_box      1 0
Created orthogonal box = (0 0 0) to (271.5 119.46 119.46)
create_atoms    1 region 0
Created 193600 atoms
mass		1 28.0855
#dump_modify	1 element Si

############################################
pair_style   sw
pair_coeff   * * Si16.sw Si
thermo		100
thermo_style custom step lx
min_style cg
minimize 0.0 1.0e-8 10000 100000
  update every 1 steps, delay 0 steps, check yes
Step Lx
       0        271.5
       1        271.5
Loop time of 0.0411414 on 32 procs for 1 steps with 193600 atoms

Minimization stats:
  Stopping criterion = force tolerance
  Energy initial, next-to-last, final =
  Force two-norm initial, final = 1.03737e-10 1.03659e-10
  Force max component initial, final = 6.08065e-13 6.10026e-13
  Final line search alpha, max atom move = 1 6.10026e-13
  Iterations, force evaluations = 1 2

timestep     0.0005
velocity 	all create $T 492845
velocity 	all create 300 492845

fix 		NPT all npt temp 300 300 0.05 iso 0.0 0.0 0.5
thermo		100
thermo_style custom step lx press
run		5000
Step Lx Press
1        271.5   -11600.195
Averages over the last 26 of 52 rows, steps 2600 to 5001:
Lx Press
270.676 -4.46865
Loop time of 121.028 on 32 procs for 5000 steps with 193600 atoms

unfix		NPT
variable	length equal lx/5.43

################### Geometrical Parameters After Relaxation ###############################
# Thermostat_width
variable	TW equal 49.8491918825282/40
# Hot_Start
variable	hs equal 49.8491918825282/4-1.24622979706321
# Hot_End
variable	he equal 49.8491918825282/4+1.24622979706321
# Cold_Start
variable	cs equal 3*49.8491918825282/4-1.24622979706321
# Cold_End
variable	ce equal 3*49.8491918825282/4+1.24622979706321
###########################################################################################

################### Defining Thermostat ###################################################
region 		hot block 11.2160681735688 13.7085277676953 EDGE EDGE EDGE EDGE
region 		cold block 36.1406641148329 38.6331237089594 EDGE EDGE EDGE EDGE
group		test region cold
9572 atoms in group test
group		test1 region hot
9570 atoms in group test1
compute		Thot all temp/region hot
compute         Tcold all temp/region cold
###########################################################################################

fix		NVT all nvt temp 300 300 0.05
thermo		1000
thermo_style	custom step temp
run		40000
Step Temp
    5001    300.70456
    6000    300.85513
    7000    301.66597
    8000    300.14307
    9000    299.31428
   10000    301.21491
   11000    301.01991
   12000    300.13536
   13000    300.91367
   14000    298.62861
   15000    299.80596
   16000    298.31571
   17000    301.05392
   18000    301.46743
   19000    299.21345
   20000    299.56251
   21000    299.12737
   22000    297.54371
   23000    300.05158
   24000    299.76192
   25000    300.17237
   26000    299.65096
   27000    300.55164
   28000    299.91012
   29000    299.73604
   30000    300.35021
   31000    299.96867
   32000    299.28438
   33000    299.03807
   34000    299.31349
   35000    300.11451
   36000    300.36089
   37000    299.50085
   38000    299.27341
   39000    300.50333
   40000     299.3493
   41000    300.73693
   42000     299.2259
   43000    299.47544
   44000    299.94901
   45000    298.40961
   45001    298.38431
Loop time of 945.709 on 32 procs for 40000 steps with 193600 atoms

velocity	all scale $T
velocity	all scale 300
unfix		NVT

fix		NVE all nve
fix		hot all langevin 319.9225 319.9225 0.05 389516 tally yes
fix_modify	hot temp Thot
fix		cold all langevin 280.0775 280.0775 0.05 46579 tally yes
fix_modify	cold temp Tcold

thermo_style	custom step temp c_Thot c_Tcold f_hot f_cold
run		100000
Step Temp c_Thot c_Tcold f_hot f_cold
45001          300    298.85773     301.3172           -0           -0
Averages over the last 51 of 102 rows, steps 96000 to 145001:
Temp c_Thot c_Tcold f_hot f_cold
299.984 317.541 282.378 -3455.66 3487.08
Loop time of 2501.31 on 32 procs for 100000 steps with 193600 atoms

# thermal conductivity calculation
# reset langevin thermostats to zero energy accumulation
reset_timestep 0
thermo		$c
thermo		500000
compute		ke all ke/atom
variable	temp atom c_ke/1.5/8.617332478e-5
fix		hot all langevin 319.9225 319.9225 0.05 389516 tally yes
fix_modify	hot temp Thot
fix		cold all langevin 280.0775 280.0775 0.05 46579 tally yes
fix_modify	cold temp Tcold

compute		ch all chunk/atom bin/1d x lower 0.02 units reduced
fix		11 all ave/chunk 100 5000 500000 ch v_temp file sw_16.langevin
thermo_style	custom step temp c_Thot c_Tcold f_hot f_cold

run		500000
Step Temp c_Thot c_Tcold f_hot f_cold
0    299.94785     318.1226    281.96069           -0           -0
Loop time of 12567.7 on 32 procs for 500000 steps with 193600 atoms

clear
next		P
jump		Si.in
