# temperature
variable	T equal 300
#cold region temperature
#variable        tlo equal 275
variable        tlo equal 300-50*1.5938/4.0
#hot region temperature
variable        thi equal 300+50*1.5938/4.0

#time step (picoseconds)
variable	dt equal 0.0005 # 0.5 femtoseconds
#number of time steps for NPT
variable	tnpt equal 5000
#number of time steps for NVT
variable	tnvt equal 40000
#number of time steps for first NVE
variable	t1nve equal 100000
#number of time steps for second NVE
variable	t2nve equal 500000

################### Variable Based on LAMMPS Documentation ######################
variable	a equal 100
variable	c equal 500000
variable	b equal $c/$a
variable	b equal 500000/$a
variable	b equal 500000/100
variable	tdamp equal 0.0005*100
variable	pdamp equal 0.0005*1000

#----------------------------------------------------------------------------------------
# setup problem
dimension       3
boundary        p p p
atom_style      atomic
lattice 	diamond 5.43 origin 0.0 0.0 0.0 orient x 1 0 0 orient y 0 1 0 orient z 0 0 1
Lattice spacing in x,y,z = 5.43 5.43 5.43
region          0 block 0 $L 0 $W 0 $H units lattice side in
region          0 block 0 50 0 $W 0 $H units lattice side in
region          0 block 0 50 0 22 0 $H units lattice side in
region          0 block 0 50 0 22 0 22 units lattice side in
create_box      1 0
Created orthogonal box = (0 0 0) to (271.5 119.46 119.46)
create_atoms    1 region 0
Created 193600 atoms
mass		1 28.0855
#dump_modify	1 element Si

############################################
pair_style   sw
pair_coeff   * * Si12.sw Si
thermo		100
thermo_style custom step lx
min_style cg
minimize 0.0 1.0e-8 10000 100000
  update every 1 steps, delay 0 steps, check yes
Step Lx
       0        271.5
       1        271.5
Loop time of 0.0416013 on 32 procs for 1 steps with 193600 atoms

Minimization stats:
  Stopping criterion = force tolerance
  Energy initial, next-to-last, final =
  Force two-norm initial, final = 8.3629e-11 8.35749e-11
  Force max component initial, final = 4.84194e-13 4.86839e-13
  Final line search alpha, max atom move = 1 4.86839e-13
  Iterations, force evaluations = 1 2

timestep     0.0005
velocity 	all create $T 492845
velocity 	all create 300 492845

fix 		NPT all npt temp 300 300 0.05 iso 0.0 0.0 0.5
thermo		100
thermo_style custom step lx press
run		5000
Step Lx Press
1        271.5   -65952.076
Averages over the last 26 of 52 rows, steps 2600 to 5001:
Lx Press
266.029 8.39724
Loop time of 89.4173 on 32 procs for 5000 steps with 193600 atoms

unfix		NPT
variable	length equal lx/5.43

################### Geometrical Parameters After Relaxation ###############################
# Thermostat_width
variable	TW equal 48.9901527407399/40
# Hot_Start
variable	hs equal 48.9901527407399/4-1.2247538185185
# Hot_End
variable	he equal 48.9901527407399/4+1.2247538185185
# Cold_Start
variable	cs equal 3*48.9901527407399/4-1.2247538185185
# Cold_End
variable	ce equal 3*48.9901527407399/4+1.2247538185185
###########################################################################################

################### Defining Thermostat ###################################################
region 		hot block 11.0227843666665 13.4722920037035 EDGE EDGE EDGE EDGE
region 		cold block 35.5178607370364 37.9673683740734 EDGE EDGE EDGE EDGE
group		test region cold
9571 atoms in group test
group		test1 region hot
9586 atoms in group test1
compute		Thot all temp/region hot
compute         Tcold all temp/region cold
###########################################################################################

fix		NVT all nvt temp 300 300 0.05
thermo		1000
thermo_style	custom step temp
run		40000
Step Temp
    5001     298.4192
    6000    299.37764
    7000    297.61406
    8000    299.28338
    9000    299.36586
   10000    299.03178
   11000    300.41849
   12000    302.24038
   13000    299.74899
   14000    300.35125
   15000    299.04615
   16000    300.59932
   17000     300.1943
   18000    300.11764
   19000    299.43467
   20000    299.50175
   21000    299.54268
   22000    299.91867
   23000    298.26225
   24000    299.76897
   25000    299.70468
   26000    300.46478
   27000    301.61163
   28000    299.26274
   29000    299.78596
   30000    298.76289
   31000    299.32135
   32000     299.7255
   33000    300.48888
   34000    300.76607
   35000    299.46938
   36000    299.61291
   37000    299.01939
   38000    298.58285
   39000    298.90093
   40000    300.24328
   41000    298.46797
   42000    299.71301
   43000     300.1292
   44000    299.19127
   45000    300.21656
   45001    300.19593
Loop time of 643.213 on 32 procs for 40000 steps with 193600 atoms

velocity	all scale $T
velocity	all scale 300
unfix		NVT

fix		NVE all nve
fix		hot all langevin 319.9225 319.9225 0.05 389516 tally yes
fix_modify	hot temp Thot
fix		cold all langevin 280.0775 280.0775 0.05 46579 tally yes
fix_modify	cold temp Tcold

thermo_style	custom step temp c_Thot c_Tcold f_hot f_cold
run		100000
Step Temp c_Thot c_Tcold f_hot f_cold
45001          300    301.52546    295.55425           -0           -0
Averages over the last 51 of 102 rows, steps 96000 to 145001:
Temp c_Thot c_Tcold f_hot f_cold
300.216 318.855 281.666 -1986.02 1972.94
Loop time of 1763.61 on 32 procs for 100000 steps with 193600 atoms

# thermal conductivity calculation
# reset langevin thermostats to zero energy accumulation
reset_timestep 0
thermo		$c
thermo		500000
compute		ke all ke/atom
variable	temp atom c_ke/1.5/8.617332478e-5
fix		hot all langevin 319.9225 319.9225 0.05 389516 tally yes
fix_modify	hot temp Thot
fix		cold all langevin 280.0775 280.0775 0.05 46579 tally yes
fix_modify	cold temp Tcold

compute		ch all chunk/atom bin/1d x lower 0.02 units reduced
fix		11 all ave/chunk 100 5000 500000 ch v_temp file sw_12.langevin
thermo_style	custom step temp c_Thot c_Tcold f_hot f_cold

run		500000
Step Temp c_Thot c_Tcold f_hot f_cold
0     300.3629    322.21665    276.68716           -0           -0
Loop time of 8761.27 on 32 procs for 500000 steps with 193600 atoms

clear
next		P
jump		Si.in
