# temperature
variable	T equal 300
#cold region temperature
#variable        tlo equal 275
variable        tlo equal 300-50*1.5938/4.0
#hot region temperature
variable        thi equal 300+50*1.5938/4.0

#time step (picoseconds)
variable	dt equal 0.0005 # 0.5 femtoseconds
#number of time steps for NPT
variable	tnpt equal 5000
#number of time steps for NVT
variable	tnvt equal 40000
#number of time steps for first NVE
variable	t1nve equal 100000
#number of time steps for second NVE
variable	t2nve equal 500000

################### Variable Based on LAMMPS Documentation ######################
variable	a equal 100
variable	c equal 500000
variable	b equal $c/$a
variable	b equal 500000/$a
variable	b equal 500000/100
variable	tdamp equal 0.0005*100
variable	pdamp equal 0.0005*1000

#----------------------------------------------------------------------------------------
# setup problem
dimension       3
boundary        p p p
atom_style      atomic
lattice 	diamond 5.43 origin 0.0 0.0 0.0 orient x 1 0 0 orient y 0 1 0 orient z 0 0 1
Lattice spacing in x,y,z = 5.43 5.43 5.43
region          0 block 0 $L 0 $W 0 $H units lattice side in
region          0 block 0 50 0 $W 0 $H units lattice side in
region          0 block 0 50 0 22 0 $H units lattice side in
region          0 block 0 50 0 22 0 22 units lattice side in
create_box      1 0
Created orthogonal box = (0 0 0) to (271.5 119.46 119.46)
create_atoms    1 region 0
Created 193600 atoms
mass		1 28.0855
#dump_modify	1 element Si

############################################
pair_style   sw
pair_coeff   * * Si20.sw Si
thermo		100
thermo_style custom step lx
min_style cg
minimize 0.0 1.0e-8 10000 100000
  update every 1 steps, delay 0 steps, check yes
Step Lx
       0        271.5
       1        271.5
Loop time of 0.0522777 on 32 procs for 1 steps with 193600 atoms

Minimization stats:
  Stopping criterion = force tolerance
  Energy initial, next-to-last, final =
  Force two-norm initial, final = 9.78026e-11 9.77303e-11
  Force max component initial, final = 5.69657e-13 5.72396e-13
  Final line search alpha, max atom move = 1 5.72396e-13
  Iterations, force evaluations = 1 2

timestep     0.0005
velocity 	all create $T 492845
velocity 	all create 300 492845

fix 		NPT all npt temp 300 300 0.05 iso 0.0 0.0 0.5
thermo		100
thermo_style custom step lx press
run		5000
Step Lx Press
1        271.5    5250.4222
Averages over the last 26 of 52 rows, steps 2600 to 5001:
Lx Press
272.101 4.31683
Loop time of 125.316 on 32 procs for 5000 steps with 193600 atoms

unfix		NPT
variable	length equal lx/5.43

################### Geometrical Parameters After Relaxation ###############################
# Thermostat_width
variable	TW equal 50.1094998240532/40
# Hot_Start
variable	hs equal 50.1094998240532/4-1.25273749560133
# Hot_End
variable	he equal 50.1094998240532/4+1.25273749560133
# Cold_Start
variable	cs equal 3*50.1094998240532/4-1.25273749560133
# Cold_End
variable	ce equal 3*50.1094998240532/4+1.25273749560133
###########################################################################################

################### Defining Thermostat ###################################################
region 		hot block 11.274637460412 13.7801124516146 EDGE EDGE EDGE EDGE
region 		cold block 36.3293873724386 38.8348623636412 EDGE EDGE EDGE EDGE
group		test region cold
9572 atoms in group test
group		test1 region hot
9572 atoms in group test1
compute		Thot all temp/region hot
compute         Tcold all temp/region cold
###########################################################################################

fix		NVT all nvt temp 300 300 0.05
thermo		1000
thermo_style	custom step temp
run		40000
Step Temp
    5001    300.00298
    6000    302.18315
    7000    300.27657
    8000    298.44688
    9000    301.01472
   10000    300.92727
   11000    299.87807
   12000    300.22421
   13000    298.99365
   14000    300.76753
   15000    300.19723
   16000    299.19256
   17000    298.93932
   18000    301.59319
   19000    299.74031
   20000    301.28581
   21000    300.91724
   22000    300.22032
   23000    299.30269
   24000     299.6024
   25000    299.49159
   26000     298.8761
   27000    299.15005
   28000    298.36382
   29000    299.83367
   30000    300.09508
   31000    299.61834
   32000    300.13804
   33000     299.9029
   34000     300.2792
   35000     299.2817
   36000    299.11284
   37000    299.90546
   38000    301.03716
   39000    299.69505
   40000    299.73044
   41000    300.23117
   42000    299.29664
   43000    300.26648
   44000    301.06314
   45000    300.25137
   45001    300.27165
Loop time of 1019.01 on 32 procs for 40000 steps with 193600 atoms

velocity	all scale $T
velocity	all scale 300
unfix		NVT

fix		NVE all nve
fix		hot all langevin 319.9225 319.9225 0.05 389516 tally yes
fix_modify	hot temp Thot
fix		cold all langevin 280.0775 280.0775 0.05 46579 tally yes
fix_modify	cold temp Tcold

thermo_style	custom step temp c_Thot c_Tcold f_hot f_cold
run		100000
Step Temp c_Thot c_Tcold f_hot f_cold
45001          300    298.94881    304.34227           -0           -0
Averages over the last 51 of 102 rows, steps 96000 to 145001:
Temp c_Thot c_Tcold f_hot f_cold
299.413 318.262 282.091 -2840.42 2877.71
Loop time of 2669.94 on 32 procs for 100000 steps with 193600 atoms

# thermal conductivity calculation
# reset langevin thermostats to zero energy accumulation
reset_timestep 0
thermo		$c
thermo		500000
compute		ke all ke/atom
variable	temp atom c_ke/1.5/8.617332478e-5
fix		hot all langevin 319.9225 319.9225 0.05 389516 tally yes
fix_modify	hot temp Thot
fix		cold all langevin 280.0775 280.0775 0.05 46579 tally yes
fix_modify	cold temp Tcold

compute		ch all chunk/atom bin/1d x lower 0.02 units reduced
fix		11 all ave/chunk 100 5000 500000 ch v_temp file sw_20.langevin
thermo_style	custom step temp c_Thot c_Tcold f_hot f_cold

run		500000
Step Temp c_Thot c_Tcold f_hot f_cold
0    299.49974      313.946     285.2298           -0           -0
Loop time of 13574 on 32 procs for 500000 steps with 193600 atoms

clear
next		P
jump		Si.in
