# temperature
variable	T equal 300
#cold region temperature
#variable        tlo equal 275
variable        tlo equal 300-50*1.5938/4.0
#hot region temperature
variable        thi equal 300+50*1.5938/4.0

#time step (picoseconds)
variable	dt equal 0.0005 # 0.5 femtoseconds
#number of time steps for NPT
variable	tnpt equal 5000
#number of time steps for NVT
variable	tnvt equal 40000
#number of time steps for first NVE
variable	t1nve equal 100000
#number of time steps for second NVE
variable	t2nve equal 500000

################### Variable Based on LAMMPS Documentation ######################
variable	a equal 100
variable	c equal 500000
variable	b equal $c/$a
variable	b equal 500000/$a
variable	b equal 500000/100
variable	tdamp equal 0.0005*100
variable	pdamp equal 0.0005*1000

#----------------------------------------------------------------------------------------
# setup problem
dimension       3
boundary        p p p
atom_style      atomic
lattice 	diamond 5.43 origin 0.0 0.0 0.0 orient x 1 0 0 orient y 0 1 0 orient z 0 0 1
Lattice spacing in x,y,z = 5.43 5.43 5.43
region          0 block 0 $L 0 $W 0 $H units lattice side in
region          0 block 0 50 0 $W 0 $H units lattice side in
region          0 block 0 50 0 22 0 $H units lattice side in
region          0 block 0 50 0 22 0 22 units lattice side in
create_box      1 0
Created orthogonal box = (0 0 0) to (271.5 119.46 119.46)
create_atoms    1 region 0
Created 193600 atoms
mass		1 28.0855
#dump_modify	1 element Si

############################################
pair_style   sw
pair_coeff   * * Si23.sw Si
thermo		100
thermo_style custom step lx
min_style cg
minimize 0.0 1.0e-8 10000 100000
  update every 1 steps, delay 0 steps, check yes
Step Lx
       0        271.5
       1        271.5
Loop time of 0.0417484 on 32 procs for 1 steps with 193600 atoms

Minimization stats:
  Stopping criterion = force tolerance
  Energy initial, next-to-last, final =
  Force two-norm initial, final = 6.9617e-11 6.9571e-11
  Force max component initial, final = 4.03611e-13 4.05512e-13
  Final line search alpha, max atom move = 1 4.05512e-13
  Iterations, force evaluations = 1 2

timestep     0.0005
velocity 	all create $T 492845
velocity 	all create 300 492845

fix 		NPT all npt temp 300 300 0.05 iso 0.0 0.0 0.5
thermo		100
thermo_style custom step lx press
run		5000
Step Lx Press
1        271.5   -122361.06
Averages over the last 26 of 52 rows, steps 2600 to 5001:
Lx Press
259.723 -2.17127
Loop time of 72.6313 on 32 procs for 5000 steps with 193600 atoms

unfix		NPT
variable	length equal lx/5.43

################### Geometrical Parameters After Relaxation ###############################
# Thermostat_width
variable	TW equal 47.8307504108947/40
# Hot_Start
variable	hs equal 47.8307504108947/4-1.19576876027237
# Hot_End
variable	he equal 47.8307504108947/4+1.19576876027237
# Cold_Start
variable	cs equal 3*47.8307504108947/4-1.19576876027237
# Cold_End
variable	ce equal 3*47.8307504108947/4+1.19576876027237
###########################################################################################

################### Defining Thermostat ###################################################
region 		hot block 10.7619188424513 13.153456362996 EDGE EDGE EDGE EDGE
region 		cold block 34.6772940478987 37.0688315684434 EDGE EDGE EDGE EDGE
group		test region cold
9577 atoms in group test
group		test1 region hot
9580 atoms in group test1
compute		Thot all temp/region hot
compute         Tcold all temp/region cold
###########################################################################################

fix		NVT all nvt temp 300 300 0.05
thermo		1000
thermo_style	custom step temp
run		40000
Step Temp
    5001    301.23626
    6000    301.40455
    7000    299.42827
    8000    299.18871
    9000    298.77904
   10000     302.6838
   11000    300.58155
   12000    301.09438
   13000    301.34309
   14000    300.07557
   15000    301.95554
   16000    298.99915
   17000    300.42525
   18000    300.10877
   19000    300.13664
   20000    299.64821
   21000    298.89446
   22000    299.01653
   23000    299.80636
   24000    299.99252
   25000    299.64876
   26000    299.59626
   27000    298.43436
   28000    301.00101
   29000    299.23837
   30000    300.63146
   31000    301.20774
   32000    298.48561
   33000    299.23651
   34000    300.54881
   35000    300.41924
   36000    300.57377
   37000    299.56112
   38000    300.30983
   39000    299.82214
   40000    299.54182
   41000    300.14828
   42000    299.79947
   43000    300.14554
   44000    299.65678
   45000    300.42955
   45001    300.46265
Loop time of 562.775 on 32 procs for 40000 steps with 193600 atoms

velocity	all scale $T
velocity	all scale 300
unfix		NVT

fix		NVE all nve
fix		hot all langevin 319.9225 319.9225 0.05 389516 tally yes
fix_modify	hot temp Thot
fix		cold all langevin 280.0775 280.0775 0.05 46579 tally yes
fix_modify	cold temp Tcold

thermo_style	custom step temp c_Thot c_Tcold f_hot f_cold
run		100000
Step Temp c_Thot c_Tcold f_hot f_cold
45001          300    303.79632    301.91014           -0           -0
Averages over the last 51 of 102 rows, steps 96000 to 145001:
Temp c_Thot c_Tcold f_hot f_cold
299.205 318.518 281.619 -2145.94 2172.49
Loop time of 1549.94 on 32 procs for 100000 steps with 193600 atoms

# thermal conductivity calculation
# reset langevin thermostats to zero energy accumulation
reset_timestep 0
thermo		$c
thermo		500000
compute		ke all ke/atom
variable	temp atom c_ke/1.5/8.617332478e-5
fix		hot all langevin 319.9225 319.9225 0.05 389516 tally yes
fix_modify	hot temp Thot
fix		cold all langevin 280.0775 280.0775 0.05 46579 tally yes
fix_modify	cold temp Tcold

compute		ch all chunk/atom bin/1d x lower 0.02 units reduced
fix		11 all ave/chunk 100 5000 500000 ch v_temp file sw_23.langevin
thermo_style	custom step temp c_Thot c_Tcold f_hot f_cold

run		500000
Step Temp c_Thot c_Tcold f_hot f_cold
0     299.5204    319.21368    282.18869           -0           -0
Loop time of 7760.42 on 32 procs for 500000 steps with 193600 atoms

clear
next		P
jump		Si.in
 units       metal
#----------------------------- User Input Variables --------------------------------------
################### Geometrical Parameters ###############################
variable	P index 21 22 23 24
variable	W equal 22
# Lattice Constant
variable	LC equal 5.43
# Length
variable	L equal 50
# Width
#variable	W equal 6
# Height
variable	H equal 22
################### Simulation Condition ###############################
#DT/DX=cte
variable	cte equal 1.5938
log         sw_24.log
