# temperature
variable	T equal 300
#cold region temperature
#variable        tlo equal 275
variable        tlo equal 300-50*1.5938/4.0
#hot region temperature
variable        thi equal 300+50*1.5938/4.0

#time step (picoseconds)
variable	dt equal 0.0005 # 0.5 femtoseconds
#number of time steps for NPT
variable	tnpt equal 5000
#number of time steps for NVT
variable	tnvt equal 40000
#number of time steps for first NVE
variable	t1nve equal 100000
#number of time steps for second NVE
variable	t2nve equal 500000

################### Variable Based on LAMMPS Documentation ######################
variable	a equal 100
variable	c equal 500000
variable	b equal $c/$a
variable	b equal 500000/$a
variable	b equal 500000/100
variable	tdamp equal 0.0005*100
variable	pdamp equal 0.0005*1000

#----------------------------------------------------------------------------------------
# setup problem
dimension       3
boundary        p p p
atom_style      atomic
lattice 	diamond 5.43 origin 0.0 0.0 0.0 orient x 1 0 0 orient y 0 1 0 orient z 0 0 1
Lattice spacing in x,y,z = 5.43 5.43 5.43
region          0 block 0 $L 0 $W 0 $H units lattice side in
region          0 block 0 50 0 $W 0 $H units lattice side in
region          0 block 0 50 0 22 0 $H units lattice side in
region          0 block 0 50 0 22 0 22 units lattice side in
create_box      1 0
Created orthogonal box = (0 0 0) to (271.5 119.46 119.46)
create_atoms    1 region 0
Created 193600 atoms
mass		1 28.0855
#dump_modify	1 element Si

############################################
pair_style   sw
pair_coeff   * * Si24.sw Si
thermo		100
thermo_style custom step lx
min_style cg
minimize 0.0 1.0e-8 10000 100000
  update every 1 steps, delay 0 steps, check yes
Step Lx
       0        271.5
       1        271.5
Loop time of 0.0413097 on 32 procs for 1 steps with 193600 atoms

Minimization stats:
  Stopping criterion = force tolerance
  Energy initial, next-to-last, final =
  Force two-norm initial, final = 1.03383e-10 1.03307e-10
  Force max component initial, final = 6.03147e-13 6.07042e-13
  Final line search alpha, max atom move = 1 6.07042e-13
  Iterations, force evaluations = 1 2

timestep     0.0005
velocity 	all create $T 492845
velocity 	all create 300 492845

fix 		NPT all npt temp 300 300 0.05 iso 0.0 0.0 0.5
thermo		100
thermo_style custom step lx press
run		5000
Step Lx Press
1        271.5   -16191.456
Averages over the last 26 of 52 rows, steps 2600 to 5001:
Lx Press
270.281 1.37377
Loop time of 106.838 on 32 procs for 5000 steps with 193600 atoms

unfix		NPT
variable	length equal lx/5.43

################### Geometrical Parameters After Relaxation ###############################
# Thermostat_width
variable	TW equal 49.7744570837282/40
# Hot_Start
variable	hs equal 49.7744570837282/4-1.24436142709321
# Hot_End
variable	he equal 49.7744570837282/4+1.24436142709321
# Cold_Start
variable	cs equal 3*49.7744570837282/4-1.24436142709321
# Cold_End
variable	ce equal 3*49.7744570837282/4+1.24436142709321
###########################################################################################

################### Defining Thermostat ###################################################
region 		hot block 11.1992528438388 13.6879756980253 EDGE EDGE EDGE EDGE
region 		cold block 36.0864813857029 38.5752042398894 EDGE EDGE EDGE EDGE
group		test region cold
9567 atoms in group test
group		test1 region hot
9577 atoms in group test1
compute		Thot all temp/region hot
compute         Tcold all temp/region cold
###########################################################################################

fix		NVT all nvt temp 300 300 0.05
thermo		1000
thermo_style	custom step temp
run		40000
Step Temp
    5001    297.81687
    6000    300.44734
    7000    299.06038
    8000    300.77478
    9000    299.14212
   10000     298.4522
   11000    300.16417
   12000    299.78756
   13000    299.84744
   14000    299.87179
   15000    299.37741
   16000    300.06908
   17000    299.52549
   18000    299.39956
   19000    300.47459
   20000    298.43916
   21000    300.83981
   22000    299.01811
   23000    301.43858
   24000    299.91876
   25000    301.47292
   26000    300.42203
   27000    300.50179
   28000    298.91207
   29000     300.5619
   30000    300.34651
   31000    301.17193
   32000     299.9083
   33000    299.35805
   34000    300.94629
   35000    301.33827
   36000    300.06784
   37000    299.48314
   38000    299.03735
   39000    300.38546
   40000    300.29399
   41000    300.34654
   42000    299.31289
   43000    300.56725
   44000    299.96883
   45000    299.03972
   45001    299.02515
Loop time of 817.922 on 32 procs for 40000 steps with 193600 atoms

velocity	all scale $T
velocity	all scale 300
unfix		NVT

fix		NVE all nve
fix		hot all langevin 319.9225 319.9225 0.05 389516 tally yes
fix_modify	hot temp Thot
fix		cold all langevin 280.0775 280.0775 0.05 46579 tally yes
fix_modify	cold temp Tcold

thermo_style	custom step temp c_Thot c_Tcold f_hot f_cold
run		100000
Step Temp c_Thot c_Tcold f_hot f_cold
45001          300    299.41843    301.69688           -0           -0
Averages over the last 51 of 102 rows, steps 96000 to 145001:
Temp c_Thot c_Tcold f_hot f_cold
299.918 318.133 281.825 -3382.92 3418.07
Loop time of 2189.09 on 32 procs for 100000 steps with 193600 atoms

# thermal conductivity calculation
# reset langevin thermostats to zero energy accumulation
reset_timestep 0
thermo		$c
thermo		500000
compute		ke all ke/atom
variable	temp atom c_ke/1.5/8.617332478e-5
fix		hot all langevin 319.9225 319.9225 0.05 389516 tally yes
fix_modify	hot temp Thot
fix		cold all langevin 280.0775 280.0775 0.05 46579 tally yes
fix_modify	cold temp Tcold

compute		ch all chunk/atom bin/1d x lower 0.02 units reduced
fix		11 all ave/chunk 100 5000 500000 ch v_temp file sw_24.langevin
thermo_style	custom step temp c_Thot c_Tcold f_hot f_cold

run		500000
Step Temp c_Thot c_Tcold f_hot f_cold
0    299.77652    320.39684     279.3155           -0           -0
Loop time of 10896.6 on 32 procs for 500000 steps with 193600 atoms

clear
next		P
jump		Si.in
