# temperature
variable	T equal 300
#cold region temperature
#variable        tlo equal 275
variable        tlo equal 300-50*1.5938/4.0
#hot region temperature
variable        thi equal 300+50*1.5938/4.0

#time step (picoseconds)
variable	dt equal 0.0005 # 0.5 femtoseconds
#number of time steps for NPT
variable	tnpt equal 5000
#number of time steps for NVT
variable	tnvt equal 40000
#number of time steps for first NVE
variable	t1nve equal 100000
#number of time steps for second NVE
variable	t2nve equal 500000

################### Variable Based on LAMMPS Documentation ######################
variable	a equal 100
variable	c equal 500000
variable	b equal $c/$a
variable	b equal 500000/$a
variable	b equal 500000/100
variable	tdamp equal 0.0005*100
variable	pdamp equal 0.0005*1000

#----------------------------------------------------------------------------------------
# setup problem
dimension       3
boundary        p p p
atom_style      atomic
lattice 	diamond 5.43 origin 0.0 0.0 0.0 orient x 1 0 0 orient y 0 1 0 orient z 0 0 1
Lattice spacing in x,y,z = 5.43 5.43 5.43
region          0 block 0 $L 0 $W 0 $H units lattice side in
region          0 block 0 50 0 $W 0 $H units lattice side in
region          0 block 0 50 0 22 0 $H units lattice side in
region          0 block 0 50 0 22 0 22 units lattice side in
create_box      1 0
Created orthogonal box = (0 0 0) to (271.5 119.46 119.46)
create_atoms    1 region 0
Created 193600 atoms
mass		1 28.0855
#dump_modify	1 element Si

############################################
pair_style   sw
pair_coeff   * * Si27.sw Si
thermo		100
thermo_style custom step lx
min_style cg
minimize 0.0 1.0e-8 10000 100000
  update every 1 steps, delay 0 steps, check yes
Step Lx
       0        271.5
       1        271.5
Loop time of 0.0408089 on 32 procs for 1 steps with 193600 atoms

Minimization stats:
  Stopping criterion = force tolerance
  Energy initial, next-to-last, final =
  Force two-norm initial, final = 9.7008e-11 9.69397e-11
  Force max component initial, final = 5.64184e-13 5.67213e-13
  Final line search alpha, max atom move = 1 5.67213e-13
  Iterations, force evaluations = 1 2

timestep     0.0005
velocity 	all create $T 492845
velocity 	all create 300 492845

fix 		NPT all npt temp 300 300 0.05 iso 0.0 0.0 0.5
thermo		100
thermo_style custom step lx press
run		5000
Step Lx Press
1        271.5    27836.561
Averages over the last 26 of 52 rows, steps 2600 to 5001:
Lx Press
274.06 2.97598
Loop time of 158.208 on 32 procs for 5000 steps with 193600 atoms

unfix		NPT
variable	length equal lx/5.43

################### Geometrical Parameters After Relaxation ###############################
# Thermostat_width
variable	TW equal 50.4707841182202/40
# Hot_Start
variable	hs equal 50.4707841182202/4-1.2617696029555
# Hot_End
variable	he equal 50.4707841182202/4+1.2617696029555
# Cold_Start
variable	cs equal 3*50.4707841182202/4-1.2617696029555
# Cold_End
variable	ce equal 3*50.4707841182202/4+1.2617696029555
###########################################################################################

################### Defining Thermostat ###################################################
region 		hot block 11.3559264265996 13.8794656325106 EDGE EDGE EDGE EDGE
region 		cold block 36.5913184857096 39.1148576916207 EDGE EDGE EDGE EDGE
group		test region cold
9555 atoms in group test
group		test1 region hot
9562 atoms in group test1
compute		Thot all temp/region hot
compute         Tcold all temp/region cold
###########################################################################################

fix		NVT all nvt temp 300 300 0.05
thermo		1000
thermo_style	custom step temp
run		40000
Step Temp
    5001     300.7464
    6000    302.35147
    7000    295.02947
    8000    299.79097
    9000     298.9992
   10000    299.40322
   11000    300.35684
   12000    301.11262
   13000    300.77783
   14000    300.72041
   15000    298.80196
   16000    300.26604
   17000    302.00105
   18000    300.26032
   19000    299.44501
   20000    300.45322
   21000    299.40835
   22000    301.48575
   23000     299.3714
   24000    300.36769
   25000     300.3671
   26000    300.78394
   27000    299.84192
   28000    299.31792
   29000     300.5097
   30000    300.66319
   31000    300.53408
   32000    299.32531
   33000     299.9596
   34000     299.6759
   35000    300.61448
   36000    301.31957
   37000    300.65586
   38000    300.90894
   39000    300.15917
   40000    300.34512
   41000    300.86349
   42000    299.04673
   43000    299.41822
   44000     299.6214
   45000     300.1821
   45001    300.23815
Loop time of 1282.14 on 32 procs for 40000 steps with 193600 atoms

velocity	all scale $T
velocity	all scale 300
unfix		NVT

fix		NVE all nve
fix		hot all langevin 319.9225 319.9225 0.05 389516 tally yes
fix_modify	hot temp Thot
fix		cold all langevin 280.0775 280.0775 0.05 46579 tally yes
fix_modify	cold temp Tcold

thermo_style	custom step temp c_Thot c_Tcold f_hot f_cold
run		100000
Step Temp c_Thot c_Tcold f_hot f_cold
45001          300    303.34403     295.7656           -0           -0
Averages over the last 51 of 102 rows, steps 96000 to 145001:
Temp c_Thot c_Tcold f_hot f_cold
300.317 317.948 281.562 -2742.55 2718.1
Loop time of 3322.61 on 32 procs for 100000 steps with 193600 atoms

# thermal conductivity calculation
# reset langevin thermostats to zero energy accumulation
reset_timestep 0
thermo		$c
thermo		500000
compute		ke all ke/atom
variable	temp atom c_ke/1.5/8.617332478e-5
fix		hot all langevin 319.9225 319.9225 0.05 389516 tally yes
fix_modify	hot temp Thot
fix		cold all langevin 280.0775 280.0775 0.05 46579 tally yes
fix_modify	cold temp Tcold

compute		ch all chunk/atom bin/1d x lower 0.02 units reduced
fix		11 all ave/chunk 100 5000 500000 ch v_temp file sw_27.langevin
thermo_style	custom step temp c_Thot c_Tcold f_hot f_cold

run		500000
Step Temp c_Thot c_Tcold f_hot f_cold
0    299.98286    319.72924    279.96307           -0           -0
Loop time of 16596.2 on 32 procs for 500000 steps with 193600 atoms

clear
next		P
jump		Si.in
 units       metal
#----------------------------- User Input Variables --------------------------------------
################### Geometrical Parameters ###############################
variable	P index 25 26 27 28
variable	W equal 22
# Lattice Constant
variable	LC equal 5.43
# Length
variable	L equal 50
# Width
#variable	W equal 6
# Height
variable	H equal 22
################### Simulation Condition ###############################
#DT/DX=cte
variable	cte equal 1.5938
log         sw_28.log
