# temperature
variable	T equal 300
#cold region temperature
#variable        tlo equal 275
variable        tlo equal 300-50*1.5938/4.0
#hot region temperature
variable        thi equal 300+50*1.5938/4.0

#time step (picoseconds)
variable	dt equal 0.0005 # 0.5 femtoseconds
#number of time steps for NPT
variable	tnpt equal 5000
#number of time steps for NVT
variable	tnvt equal 40000
#number of time steps for first NVE
variable	t1nve equal 100000
#number of time steps for second NVE
variable	t2nve equal 500000

################### Variable Based on LAMMPS Documentation ######################
variable	a equal 100
variable	c equal 500000
variable	b equal $c/$a
variable	b equal 500000/$a
variable	b equal 500000/100
variable	tdamp equal 0.0005*100
variable	pdamp equal 0.0005*1000

#----------------------------------------------------------------------------------------
# setup problem
dimension       3
boundary        p p p
atom_style      atomic
lattice 	diamond 5.43 origin 0.0 0.0 0.0 orient x 1 0 0 orient y 0 1 0 orient z 0 0 1
Lattice spacing in x,y,z = 5.43 5.43 5.43
region          0 block 0 $L 0 $W 0 $H units lattice side in
region          0 block 0 50 0 $W 0 $H units lattice side in
region          0 block 0 50 0 22 0 $H units lattice side in
region          0 block 0 50 0 22 0 22 units lattice side in
create_box      1 0
Created orthogonal box = (0 0 0) to (271.5 119.46 119.46)
create_atoms    1 region 0
Created 193600 atoms
mass		1 28.0855
#dump_modify	1 element Si

############################################
pair_style   sw
pair_coeff   * * Si28.sw Si
thermo		100
thermo_style custom step lx
min_style cg
minimize 0.0 1.0e-8 10000 100000
  update every 1 steps, delay 0 steps, check yes
Step Lx
       0        271.5
       1        271.5
Loop time of 0.0387772 on 32 procs for 1 steps with 193600 atoms

Minimization stats:
  Stopping criterion = force tolerance
  Energy initial, next-to-last, final =
  Force two-norm initial, final = 6.73067e-11 6.72589e-11
  Force max component initial, final = 3.89992e-13 3.91532e-13
  Final line search alpha, max atom move = 1 3.91532e-13
  Iterations, force evaluations = 1 2

timestep     0.0005
velocity 	all create $T 492845
velocity 	all create 300 492845

fix 		NPT all npt temp 300 300 0.05 iso 0.0 0.0 0.5
thermo		100
thermo_style custom step lx press
run		5000
Step Lx Press
1        271.5   -132272.04
Averages over the last 26 of 52 rows, steps 2600 to 5001:
Lx Press
259 5.77693
Loop time of 77.8437 on 32 procs for 5000 steps with 193600 atoms

unfix		NPT
variable	length equal lx/5.43

################### Geometrical Parameters After Relaxation ###############################
# Thermostat_width
variable	TW equal 47.6966307509397/40
# Hot_Start
variable	hs equal 47.6966307509397/4-1.19241576877349
# Hot_End
variable	he equal 47.6966307509397/4+1.19241576877349
# Cold_Start
variable	cs equal 3*47.6966307509397/4-1.19241576877349
# Cold_End
variable	ce equal 3*47.6966307509397/4+1.19241576877349
###########################################################################################

################### Defining Thermostat ###################################################
region 		hot block 10.7317419189614 13.1165734565084 EDGE EDGE EDGE EDGE
region 		cold block 34.5800572944313 36.9648888319783 EDGE EDGE EDGE EDGE
group		test region cold
9562 atoms in group test
group		test1 region hot
9567 atoms in group test1
compute		Thot all temp/region hot
compute         Tcold all temp/region cold
###########################################################################################

fix		NVT all nvt temp 300 300 0.05
thermo		1000
thermo_style	custom step temp
run		40000
Step Temp
    5001    299.98758
    6000    298.85258
    7000    299.68908
    8000    300.40827
    9000    299.47091
   10000    299.81998
   11000    300.03681
   12000    300.51277
   13000    301.33695
   14000    300.05713
   15000    300.81503
   16000     299.0534
   17000    299.19304
   18000    298.60689
   19000    300.78773
   20000    300.74894
   21000    299.67152
   22000    299.80464
   23000    300.82659
   24000    299.81459
   25000    299.55579
   26000    299.14677
   27000    299.77256
   28000    298.67825
   29000    299.73387
   30000    300.74422
   31000    298.59457
   32000    299.97056
   33000    300.03145
   34000    299.86547
   35000    299.65717
   36000     299.8747
   37000    300.23419
   38000    299.11505
   39000     299.7429
   40000    301.61868
   41000    299.91592
   42000    300.39048
   43000     300.8866
   44000    299.85831
   45000    299.87056
   45001    299.86431
Loop time of 555.518 on 32 procs for 40000 steps with 193600 atoms

velocity	all scale $T
velocity	all scale 300
unfix		NVT

fix		NVE all nve
fix		hot all langevin 319.9225 319.9225 0.05 389516 tally yes
fix_modify	hot temp Thot
fix		cold all langevin 280.0775 280.0775 0.05 46579 tally yes
fix_modify	cold temp Tcold

thermo_style	custom step temp c_Thot c_Tcold f_hot f_cold
run		100000
Step Temp c_Thot c_Tcold f_hot f_cold
45001          300    303.13739    299.17283           -0           -0
Averages over the last 51 of 102 rows, steps 96000 to 145001:
Temp c_Thot c_Tcold f_hot f_cold
299.631 318.765 281.153 -1852.32 1886.57
Loop time of 1543.51 on 32 procs for 100000 steps with 193600 atoms

# thermal conductivity calculation
# reset langevin thermostats to zero energy accumulation
reset_timestep 0
thermo		$c
thermo		500000
compute		ke all ke/atom
variable	temp atom c_ke/1.5/8.617332478e-5
fix		hot all langevin 319.9225 319.9225 0.05 389516 tally yes
fix_modify	hot temp Thot
fix		cold all langevin 280.0775 280.0775 0.05 46579 tally yes
fix_modify	cold temp Tcold

compute		ch all chunk/atom bin/1d x lower 0.02 units reduced
fix		11 all ave/chunk 100 5000 500000 ch v_temp file sw_28.langevin
thermo_style	custom step temp c_Thot c_Tcold f_hot f_cold

run		500000
Step Temp c_Thot c_Tcold f_hot f_cold
0    299.65193    314.74111    279.18405           -0           -0
Loop time of 7678.07 on 32 procs for 500000 steps with 193600 atoms

clear
next		P
jump		Si.in
