# temperature
variable	T equal 300
#cold region temperature
#variable        tlo equal 275
variable        tlo equal 300-50*1.5938/4.0
#hot region temperature
variable        thi equal 300+50*1.5938/4.0

#time step (picoseconds)
variable	dt equal 0.0005 # 0.5 femtoseconds
#number of time steps for NPT
variable	tnpt equal 5000
#number of time steps for NVT
variable	tnvt equal 40000
#number of time steps for first NVE
variable	t1nve equal 100000
#number of time steps for second NVE
variable	t2nve equal 500000

################### Variable Based on LAMMPS Documentation ######################
variable	a equal 100
variable	c equal 500000
variable	b equal $c/$a
variable	b equal 500000/$a
variable	b equal 500000/100
variable	tdamp equal 0.0005*100
variable	pdamp equal 0.0005*1000

#----------------------------------------------------------------------------------------
# setup problem
dimension       3
boundary        p p p
atom_style      atomic
lattice 	diamond 5.43 origin 0.0 0.0 0.0 orient x 1 0 0 orient y 0 1 0 orient z 0 0 1
Lattice spacing in x,y,z = 5.43 5.43 5.43
region          0 block 0 $L 0 $W 0 $H units lattice side in
region          0 block 0 50 0 $W 0 $H units lattice side in
region          0 block 0 50 0 22 0 $H units lattice side in
region          0 block 0 50 0 22 0 22 units lattice side in
create_box      1 0
Created orthogonal box = (0 0 0) to (271.5 119.46 119.46)
create_atoms    1 region 0
Created 193600 atoms
mass		1 28.0855
#dump_modify	1 element Si

############################################
pair_style   sw
pair_coeff   * * Si34.sw Si
thermo		100
thermo_style custom step lx
min_style cg
minimize 0.0 1.0e-8 10000 100000
  update every 1 steps, delay 0 steps, check yes
Step Lx
       0        271.5
       1        271.5
Loop time of 0.0420543 on 32 procs for 1 steps with 193600 atoms

Minimization stats:
  Stopping criterion = force tolerance
  Energy initial, next-to-last, final =
  Force two-norm initial, final = 7.4921e-11 7.48688e-11
  Force max component initial, final = 4.3456e-13 4.37095e-13
  Final line search alpha, max atom move = 1 4.37095e-13
  Iterations, force evaluations = 1 2

timestep     0.0005
velocity 	all create $T 492845
velocity 	all create 300 492845

fix 		NPT all npt temp 300 300 0.05 iso 0.0 0.0 0.5
thermo		100
thermo_style custom step lx press
run		5000
Step Lx Press
1        271.5   -98863.077
Averages over the last 26 of 52 rows, steps 2600 to 5001:
Lx Press
262.1 -3.32141
Loop time of 75.1624 on 32 procs for 5000 steps with 193600 atoms

unfix		NPT
variable	length equal lx/5.43

################### Geometrical Parameters After Relaxation ###############################
# Thermostat_width
variable	TW equal 48.2699734596995/40
# Hot_Start
variable	hs equal 48.2699734596995/4-1.20674933649249
# Hot_End
variable	he equal 48.2699734596995/4+1.20674933649249
# Cold_Start
variable	cs equal 3*48.2699734596995/4-1.20674933649249
# Cold_End
variable	ce equal 3*48.2699734596995/4+1.20674933649249
###########################################################################################

################### Defining Thermostat ###################################################
region 		hot block 10.8607440284324 13.2742427014174 EDGE EDGE EDGE EDGE
region 		cold block 34.9957307582821 37.4092294312671 EDGE EDGE EDGE EDGE
group		test region cold
9573 atoms in group test
group		test1 region hot
9583 atoms in group test1
compute		Thot all temp/region hot
compute         Tcold all temp/region cold
###########################################################################################

fix		NVT all nvt temp 300 300 0.05
thermo		1000
thermo_style	custom step temp
run		40000
Step Temp
    5001    299.28321
    6000    297.78845
    7000    299.91435
    8000    298.92242
    9000    301.62212
   10000     300.9794
   11000    300.60912
   12000    300.16686
   13000    300.99036
   14000    300.05118
   15000    300.30838
   16000    298.67762
   17000    300.10885
   18000     298.8323
   19000    301.58546
   20000     300.2596
   21000    298.77539
   22000    299.17092
   23000    300.74269
   24000     299.4185
   25000    299.65015
   26000    298.81662
   27000    299.67892
   28000    299.95784
   29000    299.41114
   30000    299.63234
   31000      298.621
   32000    298.96182
   33000    299.34933
   34000    300.11318
   35000    299.30537
   36000    298.61592
   37000    299.23862
   38000     300.6783
   39000    299.62798
   40000    300.38884
   41000    300.79731
   42000    300.69983
   43000    300.06016
   44000    300.99363
   45000    301.05261
   45001      301.119
Loop time of 577.182 on 32 procs for 40000 steps with 193600 atoms

velocity	all scale $T
velocity	all scale 300
unfix		NVT

fix		NVE all nve
fix		hot all langevin 319.9225 319.9225 0.05 389516 tally yes
fix_modify	hot temp Thot
fix		cold all langevin 280.0775 280.0775 0.05 46579 tally yes
fix_modify	cold temp Tcold

thermo_style	custom step temp c_Thot c_Tcold f_hot f_cold
run		100000
Step Temp c_Thot c_Tcold f_hot f_cold
45001          300    300.38864    296.42119           -0           -0
Averages over the last 51 of 102 rows, steps 96000 to 145001:
Temp c_Thot c_Tcold f_hot f_cold
300.001 318.475 281.145 -2408.72 2380.32
Loop time of 1581.83 on 32 procs for 100000 steps with 193600 atoms

# thermal conductivity calculation
# reset langevin thermostats to zero energy accumulation
reset_timestep 0
thermo		$c
thermo		500000
compute		ke all ke/atom
variable	temp atom c_ke/1.5/8.617332478e-5
fix		hot all langevin 319.9225 319.9225 0.05 389516 tally yes
fix_modify	hot temp Thot
fix		cold all langevin 280.0775 280.0775 0.05 46579 tally yes
fix_modify	cold temp Tcold

compute		ch all chunk/atom bin/1d x lower 0.02 units reduced
fix		11 all ave/chunk 100 5000 500000 ch v_temp file sw_34.langevin
thermo_style	custom step temp c_Thot c_Tcold f_hot f_cold

run		500000
Step Temp c_Thot c_Tcold f_hot f_cold
0    300.25852    319.75687    280.85411           -0           -0
Loop time of 7878.58 on 32 procs for 500000 steps with 193600 atoms

clear
next		P
jump		Si.in
 units       metal
#----------------------------- User Input Variables --------------------------------------
################### Geometrical Parameters ###############################
variable	P index 33 34 35 36
variable	W equal 22
# Lattice Constant
variable	LC equal 5.43
# Length
variable	L equal 50
# Width
#variable	W equal 6
# Height
variable	H equal 22
################### Simulation Condition ###############################
#DT/DX=cte
variable	cte equal 1.5938
log         sw_35.log
