# temperature
variable	T equal 300
#cold region temperature
#variable        tlo equal 275
variable        tlo equal 300-50*1.5938/4.0
#hot region temperature
variable        thi equal 300+50*1.5938/4.0

#time step (picoseconds)
variable	dt equal 0.0005 # 0.5 femtoseconds
#number of time steps for NPT
variable	tnpt equal 5000
#number of time steps for NVT
variable	tnvt equal 40000
#number of time steps for first NVE
variable	t1nve equal 100000
#number of time steps for second NVE
variable	t2nve equal 500000

################### Variable Based on LAMMPS Documentation ######################
variable	a equal 100
variable	c equal 500000
variable	b equal $c/$a
variable	b equal 500000/$a
variable	b equal 500000/100
variable	tdamp equal 0.0005*100
variable	pdamp equal 0.0005*1000

#----------------------------------------------------------------------------------------
# setup problem
dimension       3
boundary        p p p
atom_style      atomic
lattice 	diamond 5.43 origin 0.0 0.0 0.0 orient x 1 0 0 orient y 0 1 0 orient z 0 0 1
Lattice spacing in x,y,z = 5.43 5.43 5.43
region          0 block 0 $L 0 $W 0 $H units lattice side in
region          0 block 0 50 0 $W 0 $H units lattice side in
region          0 block 0 50 0 22 0 $H units lattice side in
region          0 block 0 50 0 22 0 22 units lattice side in
create_box      1 0
Created orthogonal box = (0 0 0) to (271.5 119.46 119.46)
create_atoms    1 region 0
Created 193600 atoms
mass		1 28.0855
#dump_modify	1 element Si

############################################
pair_style   sw
pair_coeff   * * Si32.sw Si
thermo		100
thermo_style custom step lx
min_style cg
minimize 0.0 1.0e-8 10000 100000
  update every 1 steps, delay 0 steps, check yes
Step Lx
       0        271.5
       1        271.5
Loop time of 0.0424716 on 32 procs for 1 steps with 193600 atoms

Minimization stats:
  Stopping criterion = force tolerance
  Energy initial, next-to-last, final =
  Force two-norm initial, final = 8.73551e-11 8.72935e-11
  Force max component initial, final = 5.07724e-13 5.10195e-13
  Final line search alpha, max atom move = 1 5.10195e-13
  Iterations, force evaluations = 1 2

timestep     0.0005
velocity 	all create $T 492845
velocity 	all create 300 492845

fix 		NPT all npt temp 300 300 0.05 iso 0.0 0.0 0.5
thermo		100
thermo_style custom step lx press
run		5000
Step Lx Press
1        271.5    500.22189
Averages over the last 26 of 52 rows, steps 2600 to 5001:
Lx Press
271.635 -0.854427
Loop time of 137.1 on 32 procs for 5000 steps with 193600 atoms

unfix		NPT
variable	length equal lx/5.43

################### Geometrical Parameters After Relaxation ###############################
# Thermostat_width
variable	TW equal 50.0243450985666/40
# Hot_Start
variable	hs equal 50.0243450985666/4-1.25060862746417
# Hot_End
variable	he equal 50.0243450985666/4+1.25060862746417
# Cold_Start
variable	cs equal 3*50.0243450985666/4-1.25060862746417
# Cold_End
variable	ce equal 3*50.0243450985666/4+1.25060862746417
###########################################################################################

################### Defining Thermostat ###################################################
region 		hot block 11.2554776471775 13.7566949021058 EDGE EDGE EDGE EDGE
region 		cold block 36.2676501964608 38.7688674513891 EDGE EDGE EDGE EDGE
group		test region cold
9564 atoms in group test
group		test1 region hot
9551 atoms in group test1
compute		Thot all temp/region hot
compute         Tcold all temp/region cold
###########################################################################################

fix		NVT all nvt temp 300 300 0.05
thermo		1000
thermo_style	custom step temp
run		40000
Step Temp
    5001    301.18135
    6000    298.78998
    7000    299.40874
    8000    301.51017
    9000    301.55126
   10000    298.86707
   11000    301.75744
   12000     299.3273
   13000    298.77517
   14000    300.61965
   15000    300.47444
   16000    299.77284
   17000    298.71001
   18000    300.66867
   19000    299.79971
   20000    300.07343
   21000    300.09566
   22000    298.74323
   23000    300.63925
   24000    299.70004
   25000    299.73682
   26000    300.26236
   27000    301.32154
   28000    300.23548
   29000    299.38134
   30000    300.46358
   31000     299.2149
   32000    299.01142
   33000    300.06348
   34000     301.5617
   35000    299.42007
   36000    300.81301
   37000    298.92725
   38000    300.11365
   39000    301.40714
   40000    299.55833
   41000    299.46703
   42000    300.04907
   43000    299.17925
   44000    299.66263
   45000    299.63382
   45001    299.57701
Loop time of 1078.53 on 32 procs for 40000 steps with 193600 atoms

velocity	all scale $T
velocity	all scale 300
unfix		NVT

fix		NVE all nve
fix		hot all langevin 319.9225 319.9225 0.05 389516 tally yes
fix_modify	hot temp Thot
fix		cold all langevin 280.0775 280.0775 0.05 46579 tally yes
fix_modify	cold temp Tcold

thermo_style	custom step temp c_Thot c_Tcold f_hot f_cold
run		100000
Step Temp c_Thot c_Tcold f_hot f_cold
45001          300    296.57583    299.77201           -0           -0
Averages over the last 51 of 102 rows, steps 96000 to 145001:
Temp c_Thot c_Tcold f_hot f_cold
299.958 318.99 281.702 -2320.86 2323.32
Loop time of 2839.99 on 32 procs for 100000 steps with 193600 atoms

# thermal conductivity calculation
# reset langevin thermostats to zero energy accumulation
reset_timestep 0
thermo		$c
thermo		500000
compute		ke all ke/atom
variable	temp atom c_ke/1.5/8.617332478e-5
fix		hot all langevin 319.9225 319.9225 0.05 389516 tally yes
fix_modify	hot temp Thot
fix		cold all langevin 280.0775 280.0775 0.05 46579 tally yes
fix_modify	cold temp Tcold

compute		ch all chunk/atom bin/1d x lower 0.02 units reduced
fix		11 all ave/chunk 100 5000 500000 ch v_temp file sw_32.langevin
thermo_style	custom step temp c_Thot c_Tcold f_hot f_cold

run		500000
Step Temp c_Thot c_Tcold f_hot f_cold
0    299.94198    315.46292    278.41471           -0           -0
Loop time of 14243.9 on 32 procs for 500000 steps with 193600 atoms

clear
next		P
jump		Si.in
