# temperature
variable	T equal 300
#cold region temperature
#variable        tlo equal 275
variable        tlo equal 300-50*1.5938/4.0
#hot region temperature
variable        thi equal 300+50*1.5938/4.0

#time step (picoseconds)
variable	dt equal 0.0005 # 0.5 femtoseconds
#number of time steps for NPT
variable	tnpt equal 5000
#number of time steps for NVT
variable	tnvt equal 40000
#number of time steps for first NVE
variable	t1nve equal 100000
#number of time steps for second NVE
variable	t2nve equal 500000

################### Variable Based on LAMMPS Documentation ######################
variable	a equal 100
variable	c equal 500000
variable	b equal $c/$a
variable	b equal 500000/$a
variable	b equal 500000/100
variable	tdamp equal 0.0005*100
variable	pdamp equal 0.0005*1000

#----------------------------------------------------------------------------------------
# setup problem
dimension       3
boundary        p p p
atom_style      atomic
lattice 	diamond 5.43 origin 0.0 0.0 0.0 orient x 1 0 0 orient y 0 1 0 orient z 0 0 1
Lattice spacing in x,y,z = 5.43 5.43 5.43
region          0 block 0 $L 0 $W 0 $H units lattice side in
region          0 block 0 50 0 $W 0 $H units lattice side in
region          0 block 0 50 0 22 0 $H units lattice side in
region          0 block 0 50 0 22 0 22 units lattice side in
create_box      1 0
Created orthogonal box = (0 0 0) to (271.5 119.46 119.46)
create_atoms    1 region 0
Created 193600 atoms
mass		1 28.0855
#dump_modify	1 element Si

############################################
pair_style   sw
pair_coeff   * * Si38.sw Si
thermo		100
thermo_style custom step lx
min_style cg
minimize 0.0 1.0e-8 10000 100000
  update every 1 steps, delay 0 steps, check yes
Step Lx
       0        271.5
       1        271.5
Loop time of 0.0414697 on 32 procs for 1 steps with 193600 atoms

Minimization stats:
  Stopping criterion = force tolerance
  Energy initial, next-to-last, final =
  Force two-norm initial, final = 7.54138e-11 7.5363e-11
  Force max component initial, final = 4.36318e-13 4.38649e-13
  Final line search alpha, max atom move = 1 4.38649e-13
  Iterations, force evaluations = 1 2

timestep     0.0005
velocity 	all create $T 492845
velocity 	all create 300 492845

fix 		NPT all npt temp 300 300 0.05 iso 0.0 0.0 0.5
thermo		100
thermo_style custom step lx press
run		5000
Step Lx Press
1        271.5   -104951.79
Averages over the last 26 of 52 rows, steps 2600 to 5001:
Lx Press
262.301 -7.73195
Loop time of 92.749 on 32 procs for 5000 steps with 193600 atoms

unfix		NPT
variable	length equal lx/5.43

################### Geometrical Parameters After Relaxation ###############################
# Thermostat_width
variable	TW equal 48.3062264141772/40
# Hot_Start
variable	hs equal 48.3062264141772/4-1.20765566035443
# Hot_End
variable	he equal 48.3062264141772/4+1.20765566035443
# Cold_Start
variable	cs equal 3*48.3062264141772/4-1.20765566035443
# Cold_End
variable	ce equal 3*48.3062264141772/4+1.20765566035443
###########################################################################################

################### Defining Thermostat ###################################################
region 		hot block 10.8689009431899 13.2842122638987 EDGE EDGE EDGE EDGE
region 		cold block 35.0220141502785 37.4373254709873 EDGE EDGE EDGE EDGE
group		test region cold
9568 atoms in group test
group		test1 region hot
9572 atoms in group test1
compute		Thot all temp/region hot
compute         Tcold all temp/region cold
###########################################################################################

fix		NVT all nvt temp 300 300 0.05
thermo		1000
thermo_style	custom step temp
run		40000
Step Temp
    5001    303.17225
    6000    301.80286
    7000    298.04403
    8000    302.33165
    9000    299.29257
   10000    300.55857
   11000    299.83653
   12000    299.91863
   13000    300.81227
   14000     300.1789
   15000    299.07316
   16000    300.84563
   17000    298.23577
   18000    300.34914
   19000    301.12755
   20000    300.33178
   21000    299.89239
   22000    300.80695
   23000    299.65036
   24000    299.89121
   25000    301.44438
   26000    301.17468
   27000    299.25568
   28000    300.19398
   29000    300.41117
   30000    300.24273
   31000    299.90516
   32000    300.93464
   33000    300.95485
   34000    299.04218
   35000    298.74638
   36000    299.85991
   37000    300.06462
   38000    300.03014
   39000    301.41506
   40000     299.8826
   41000    299.89389
   42000    298.50509
   43000    299.71181
   44000    300.75244
   45000    300.82952
   45001    300.81001
Loop time of 670.353 on 32 procs for 40000 steps with 193600 atoms

velocity	all scale $T
velocity	all scale 300
unfix		NVT

fix		NVE all nve
fix		hot all langevin 319.9225 319.9225 0.05 389516 tally yes
fix_modify	hot temp Thot
fix		cold all langevin 280.0775 280.0775 0.05 46579 tally yes
fix_modify	cold temp Tcold

thermo_style	custom step temp c_Thot c_Tcold f_hot f_cold
run		100000
Step Temp c_Thot c_Tcold f_hot f_cold
45001          300    298.12541    299.78723           -0           -0
Averages over the last 51 of 102 rows, steps 96000 to 145001:
Temp c_Thot c_Tcold f_hot f_cold
300.489 318.751 282.044 -1839.26 1817.82
Loop time of 1846.36 on 32 procs for 100000 steps with 193600 atoms

# thermal conductivity calculation
# reset langevin thermostats to zero energy accumulation
reset_timestep 0
thermo		$c
thermo		500000
compute		ke all ke/atom
variable	temp atom c_ke/1.5/8.617332478e-5
fix		hot all langevin 319.9225 319.9225 0.05 389516 tally yes
fix_modify	hot temp Thot
fix		cold all langevin 280.0775 280.0775 0.05 46579 tally yes
fix_modify	cold temp Tcold

compute		ch all chunk/atom bin/1d x lower 0.02 units reduced
fix		11 all ave/chunk 100 5000 500000 ch v_temp file sw_38.langevin
thermo_style	custom step temp c_Thot c_Tcold f_hot f_cold

run		500000
Step Temp c_Thot c_Tcold f_hot f_cold
0    300.46922    320.95021      279.354           -0           -0
Loop time of 8858.7 on 32 procs for 500000 steps with 193600 atoms

clear
next		P
jump		Si.in
 units       metal
#----------------------------- User Input Variables --------------------------------------
################### Geometrical Parameters ###############################
variable	P index 37 38 39 40
variable	W equal 22
# Lattice Constant
variable	LC equal 5.43
# Length
variable	L equal 50
# Width
#variable	W equal 6
# Height
variable	H equal 22
################### Simulation Condition ###############################
#DT/DX=cte
variable	cte equal 1.5938
log         sw_39.log
