# temperature
variable	T equal 300
#cold region temperature
#variable        tlo equal 275
variable        tlo equal 300-50*1.5938/4.0
#hot region temperature
variable        thi equal 300+50*1.5938/4.0

#time step (picoseconds)
variable	dt equal 0.0005 # 0.5 femtoseconds
#number of time steps for NPT
variable	tnpt equal 5000
#number of time steps for NVT
variable	tnvt equal 40000
#number of time steps for first NVE
variable	t1nve equal 100000
#number of time steps for second NVE
variable	t2nve equal 500000

################### Variable Based on LAMMPS Documentation ######################
variable	a equal 100
variable	c equal 500000
variable	b equal $c/$a
variable	b equal 500000/$a
variable	b equal 500000/100
variable	tdamp equal 0.0005*100
variable	pdamp equal 0.0005*1000

#----------------------------------------------------------------------------------------
# setup problem
dimension       3
boundary        p p p
atom_style      atomic
lattice 	diamond 5.43 origin 0.0 0.0 0.0 orient x 1 0 0 orient y 0 1 0 orient z 0 0 1
Lattice spacing in x,y,z = 5.43 5.43 5.43
region          0 block 0 $L 0 $W 0 $H units lattice side in
region          0 block 0 50 0 $W 0 $H units lattice side in
region          0 block 0 50 0 22 0 $H units lattice side in
region          0 block 0 50 0 22 0 22 units lattice side in
create_box      1 0
Created orthogonal box = (0 0 0) to (271.5 119.46 119.46)
create_atoms    1 region 0
Created 193600 atoms
mass		1 28.0855
#dump_modify	1 element Si

############################################
pair_style   sw
pair_coeff   * * Si36.sw Si
thermo		100
thermo_style custom step lx
min_style cg
minimize 0.0 1.0e-8 10000 100000
  update every 1 steps, delay 0 steps, check yes
Step Lx
       0        271.5
       1        271.5
Loop time of 0.0415432 on 32 procs for 1 steps with 193600 atoms

Minimization stats:
  Stopping criterion = force tolerance
  Energy initial, next-to-last, final =
  Force two-norm initial, final = 8.53285e-11 8.52675e-11
  Force max component initial, final = 4.96501e-13 4.9924e-13
  Final line search alpha, max atom move = 1 4.9924e-13
  Iterations, force evaluations = 1 2

timestep     0.0005
velocity 	all create $T 492845
velocity 	all create 300 492845

fix 		NPT all npt temp 300 300 0.05 iso 0.0 0.0 0.5
thermo		100
thermo_style custom step lx press
run		5000
Step Lx Press
1        271.5   -44568.182
Averages over the last 26 of 52 rows, steps 2600 to 5001:
Lx Press
267.503 -3.16726
Loop time of 85.3271 on 32 procs for 5000 steps with 193600 atoms

unfix		NPT
variable	length equal lx/5.43

################### Geometrical Parameters After Relaxation ###############################
# Thermostat_width
variable	TW equal 49.2642652126304/40
# Hot_Start
variable	hs equal 49.2642652126304/4-1.23160663031576
# Hot_End
variable	he equal 49.2642652126304/4+1.23160663031576
# Cold_Start
variable	cs equal 3*49.2642652126304/4-1.23160663031576
# Cold_End
variable	ce equal 3*49.2642652126304/4+1.23160663031576
###########################################################################################

################### Defining Thermostat ###################################################
region 		hot block 11.0844596728418 13.5476729334734 EDGE EDGE EDGE EDGE
region 		cold block 35.716592279157 38.1798055397886 EDGE EDGE EDGE EDGE
group		test region cold
9560 atoms in group test
group		test1 region hot
9581 atoms in group test1
compute		Thot all temp/region hot
compute         Tcold all temp/region cold
###########################################################################################

fix		NVT all nvt temp 300 300 0.05
thermo		1000
thermo_style	custom step temp
run		40000
Step Temp
    5001    299.36848
    6000    298.75892
    7000    300.94363
    8000    300.75789
    9000    300.75622
   10000    298.80232
   11000    300.48192
   12000    299.84167
   13000    300.74615
   14000    300.76907
   15000    299.97508
   16000    300.06931
   17000    300.39474
   18000    299.87596
   19000    301.02104
   20000    299.00078
   21000    298.10585
   22000    300.32514
   23000    299.95578
   24000    299.61103
   25000    301.69212
   26000    299.71371
   27000     299.7299
   28000    301.82057
   29000    301.16642
   30000    299.50519
   31000    299.30717
   32000    298.47915
   33000    300.46759
   34000    300.41833
   35000    300.02106
   36000    300.25587
   37000    300.23107
   38000    300.22778
   39000    300.35858
   40000    300.80716
   41000    299.76341
   42000    300.30135
   43000    300.00206
   44000    299.18958
   45000    300.12498
   45001      300.096
Loop time of 637.235 on 32 procs for 40000 steps with 193600 atoms

velocity	all scale $T
velocity	all scale 300
unfix		NVT

fix		NVE all nve
fix		hot all langevin 319.9225 319.9225 0.05 389516 tally yes
fix_modify	hot temp Thot
fix		cold all langevin 280.0775 280.0775 0.05 46579 tally yes
fix_modify	cold temp Tcold

thermo_style	custom step temp c_Thot c_Tcold f_hot f_cold
run		100000
Step Temp c_Thot c_Tcold f_hot f_cold
45001          300    298.05822     300.6623           -0           -0
Averages over the last 51 of 102 rows, steps 96000 to 145001:
Temp c_Thot c_Tcold f_hot f_cold
299.628 318.841 281.902 -2573.12 2603.8
Loop time of 1721.75 on 32 procs for 100000 steps with 193600 atoms

# thermal conductivity calculation
# reset langevin thermostats to zero energy accumulation
reset_timestep 0
thermo		$c
thermo		500000
compute		ke all ke/atom
variable	temp atom c_ke/1.5/8.617332478e-5
fix		hot all langevin 319.9225 319.9225 0.05 389516 tally yes
fix_modify	hot temp Thot
fix		cold all langevin 280.0775 280.0775 0.05 46579 tally yes
fix_modify	cold temp Tcold

compute		ch all chunk/atom bin/1d x lower 0.02 units reduced
fix		11 all ave/chunk 100 5000 500000 ch v_temp file sw_36.langevin
thermo_style	custom step temp c_Thot c_Tcold f_hot f_cold

run		500000
Step Temp c_Thot c_Tcold f_hot f_cold
0    299.92223    324.06143    281.73295           -0           -0
Loop time of 8582.39 on 32 procs for 500000 steps with 193600 atoms

clear
next		P
jump		Si.in
