# temperature
variable	T equal 300
#cold region temperature
#variable        tlo equal 275
variable        tlo equal 300-50*1.5938/4.0
#hot region temperature
variable        thi equal 300+50*1.5938/4.0

#time step (picoseconds)
variable	dt equal 0.0005 # 0.5 femtoseconds
#number of time steps for NPT
variable	tnpt equal 5000
#number of time steps for NVT
variable	tnvt equal 40000
#number of time steps for first NVE
variable	t1nve equal 100000
#number of time steps for second NVE
variable	t2nve equal 500000

################### Variable Based on LAMMPS Documentation ######################
variable	a equal 100
variable	c equal 500000
variable	b equal $c/$a
variable	b equal 500000/$a
variable	b equal 500000/100
variable	tdamp equal 0.0005*100
variable	pdamp equal 0.0005*1000

#----------------------------------------------------------------------------------------
# setup problem
dimension       3
boundary        p p p
atom_style      atomic
lattice 	diamond 5.43 origin 0.0 0.0 0.0 orient x 1 0 0 orient y 0 1 0 orient z 0 0 1
Lattice spacing in x,y,z = 5.43 5.43 5.43
region          0 block 0 $L 0 $W 0 $H units lattice side in
region          0 block 0 50 0 $W 0 $H units lattice side in
region          0 block 0 50 0 22 0 $H units lattice side in
region          0 block 0 50 0 22 0 22 units lattice side in
create_box      1 0
Created orthogonal box = (0 0 0) to (271.5 119.46 119.46)
create_atoms    1 region 0
Created 193600 atoms
mass		1 28.0855
#dump_modify	1 element Si

############################################
pair_style   sw
pair_coeff   * * Si40.sw Si
thermo		100
thermo_style custom step lx
min_style cg
minimize 0.0 1.0e-8 10000 100000
  update every 1 steps, delay 0 steps, check yes
Step Lx
       0        271.5
       1        271.5
Loop time of 0.0418952 on 32 procs for 1 steps with 193600 atoms

Minimization stats:
  Stopping criterion = force tolerance
  Energy initial, next-to-last, final =
  Force two-norm initial, final = 9.24421e-11 9.23751e-11
  Force max component initial, final = 5.38682e-13 5.41648e-13
  Final line search alpha, max atom move = 1 5.41648e-13
  Iterations, force evaluations = 1 2

timestep     0.0005
velocity 	all create $T 492845
velocity 	all create 300 492845

fix 		NPT all npt temp 300 300 0.05 iso 0.0 0.0 0.5
thermo		100
thermo_style custom step lx press
run		5000
Step Lx Press
1        271.5   -43606.774
Averages over the last 26 of 52 rows, steps 2600 to 5001:
Lx Press
267.814 -1.90779
Loop time of 92.9603 on 32 procs for 5000 steps with 193600 atoms

unfix		NPT
variable	length equal lx/5.43

################### Geometrical Parameters After Relaxation ###############################
# Thermostat_width
variable	TW equal 49.3215972423139/40
# Hot_Start
variable	hs equal 49.3215972423139/4-1.23303993105785
# Hot_End
variable	he equal 49.3215972423139/4+1.23303993105785
# Cold_Start
variable	cs equal 3*49.3215972423139/4-1.23303993105785
# Cold_End
variable	ce equal 3*49.3215972423139/4+1.23303993105785
###########################################################################################

################### Defining Thermostat ###################################################
region 		hot block 11.0973593795206 13.5634392416363 EDGE EDGE EDGE EDGE
region 		cold block 35.7581580006776 38.2242378627933 EDGE EDGE EDGE EDGE
group		test region cold
9574 atoms in group test
group		test1 region hot
9570 atoms in group test1
compute		Thot all temp/region hot
compute         Tcold all temp/region cold
###########################################################################################

fix		NVT all nvt temp 300 300 0.05
thermo		1000
thermo_style	custom step temp
run		40000
Step Temp
    5001     300.6873
    6000    298.26324
    7000    301.37825
    8000    300.82627
    9000    300.51582
   10000    299.90834
   11000     299.9271
   12000    302.07138
   13000    301.12329
   14000    300.66305
   15000    300.80725
   16000    301.34128
   17000    299.80838
   18000    300.48832
   19000    301.11812
   20000    300.45665
   21000     300.5293
   22000     298.5823
   23000    299.61181
   24000    300.83944
   25000    299.67341
   26000    300.35156
   27000    299.80239
   28000    299.12294
   29000    300.46048
   30000    300.38116
   31000    300.68501
   32000     300.1848
   33000    301.32483
   34000    301.38265
   35000    301.05074
   36000    298.57484
   37000    300.15832
   38000    300.46243
   39000    299.93057
   40000     300.7505
   41000    298.91051
   42000    299.82259
   43000    299.98893
   44000    299.03986
   45000     300.3033
   45001    300.31576
Loop time of 680.891 on 32 procs for 40000 steps with 193600 atoms

velocity	all scale $T
velocity	all scale 300
unfix		NVT

fix		NVE all nve
fix		hot all langevin 319.9225 319.9225 0.05 389516 tally yes
fix_modify	hot temp Thot
fix		cold all langevin 280.0775 280.0775 0.05 46579 tally yes
fix_modify	cold temp Tcold

thermo_style	custom step temp c_Thot c_Tcold f_hot f_cold
run		100000
Step Temp c_Thot c_Tcold f_hot f_cold
45001          300    296.77816    305.82837           -0           -0
Averages over the last 51 of 102 rows, steps 96000 to 145001:
Temp c_Thot c_Tcold f_hot f_cold
299.925 318.338 281.557 -2930.07 2929.9
Loop time of 1814 on 32 procs for 100000 steps with 193600 atoms

# thermal conductivity calculation
# reset langevin thermostats to zero energy accumulation
reset_timestep 0
thermo		$c
thermo		500000
compute		ke all ke/atom
variable	temp atom c_ke/1.5/8.617332478e-5
fix		hot all langevin 319.9225 319.9225 0.05 389516 tally yes
fix_modify	hot temp Thot
fix		cold all langevin 280.0775 280.0775 0.05 46579 tally yes
fix_modify	cold temp Tcold

compute		ch all chunk/atom bin/1d x lower 0.02 units reduced
fix		11 all ave/chunk 100 5000 500000 ch v_temp file sw_40.langevin
thermo_style	custom step temp c_Thot c_Tcold f_hot f_cold

run		500000
Step Temp c_Thot c_Tcold f_hot f_cold
0    300.29141    318.39406    282.06996           -0           -0
Loop time of 9205.84 on 32 procs for 500000 steps with 193600 atoms

clear
next		P
jump		Si.in
